Circuit: * C:\Program Files (x86)\LTC_ALL\LTspiceIV_4.18_multiLibs\examples\LtSpicePlus\Digital\IXDI430YI\IXDI430YI-TEST1.asc

Model "u1:mnmos": Oxide thickness thinner than recommended for a level 3 MOSFET.
Instance "m:u1:_q6": Length shorter than recommended for a level 3 MOSFET.
Instance "m:u1:_q5": Length shorter than recommended for a level 3 MOSFET.
Direct Newton iteration for .op point succeeded.
Ignoring empty pin current: Ix(u1:nc)
Ignoring empty pin current: Ix(u1:_u7a:vss)
Ignoring empty pin current: Ix(u1:_u7a:vcom)
Ignoring empty pin current: Ix(u1:_u6a:vss)
Ignoring empty pin current: Ix(u1:_u6a:vcom)
Ignoring empty pin current: Ix(u1:_u8a:in3)
Ignoring empty pin current: Ix(u1:_u8a:vss)
Ignoring empty pin current: Ix(u1:_u8a:vcom)
Ignoring empty pin current: Ix(u1:_u11a:vss)
Ignoring empty pin current: Ix(u1:_u11a:vcom)
Ignoring empty pin current: Ix(u1:_u4a:vss)
Ignoring empty pin current: Ix(u1:_u4a:vcom)
Ignoring empty pin current: Ix(u1:_u14a:vss)
Ignoring empty pin current: Ix(u1:_u14a:vcom)
Ignoring empty pin current: Ix(u1:_u13a:vss)
Ignoring empty pin current: Ix(u1:_u13a:vcom)
Ignoring empty pin current: Ix(u1:_u3a:vss)
Ignoring empty pin current: Ix(u1:_u3a:vcom)
Ignoring empty pin current: Ix(u1:_u10a:vss)
Ignoring empty pin current: Ix(u1:_u10a:vcom)
Ignoring empty pin current: Ix(u1:_u15a:vss)
Ignoring empty pin current: Ix(u1:_u15a:vcom)
Ignoring empty pin current: Ix(u1:_u2a:vss)
Ignoring empty pin current: Ix(u1:_u2a:vcom)
Ignoring empty pin current: Ix(u1:_u16a:vss)
Ignoring empty pin current: Ix(u1:_u16a:vcom)
Ignoring empty pin current: Ix(u1:_u9a:vss)
Ignoring empty pin current: Ix(u1:_u9a:vcom)
Ignoring empty pin current: Ix(u1:_u5a:vss)
Ignoring empty pin current: Ix(u1:_u5a:vcom)
Ignoring empty pin current: Ix(u1:_u12a:vss)
Ignoring empty pin current: Ix(u1:_u12a:vcom)
Ignoring empty pin current: Ix(u1:_u1:vin)
Ignoring empty pin current: Ix(u1:_u1:vcom)
Ignoring empty pin current: Ix(u1:nc)
Ignoring empty pin current: Ix(u1:_u7a:vss)
Ignoring empty pin current: Ix(u1:_u7a:vcom)
Ignoring empty pin current: Ix(u1:_u6a:vss)
Ignoring empty pin current: Ix(u1:_u6a:vcom)
Ignoring empty pin current: Ix(u1:_u8a:in3)
Ignoring empty pin current: Ix(u1:_u8a:vss)
Ignoring empty pin current: Ix(u1:_u8a:vcom)
Ignoring empty pin current: Ix(u1:_u11a:vss)
Ignoring empty pin current: Ix(u1:_u11a:vcom)
Ignoring empty pin current: Ix(u1:_u4a:vss)
Ignoring empty pin current: Ix(u1:_u4a:vcom)
Ignoring empty pin current: Ix(u1:_u14a:vss)
Ignoring empty pin current: Ix(u1:_u14a:vcom)
Ignoring empty pin current: Ix(u1:_u13a:vss)
Ignoring empty pin current: Ix(u1:_u13a:vcom)
Ignoring empty pin current: Ix(u1:_u3a:vss)
Ignoring empty pin current: Ix(u1:_u3a:vcom)
Ignoring empty pin current: Ix(u1:_u10a:vss)
Ignoring empty pin current: Ix(u1:_u10a:vcom)
Ignoring empty pin current: Ix(u1:_u15a:vss)
Ignoring empty pin current: Ix(u1:_u15a:vcom)
Ignoring empty pin current: Ix(u1:_u2a:vss)
Ignoring empty pin current: Ix(u1:_u2a:vcom)
Ignoring empty pin current: Ix(u1:_u16a:vss)
Ignoring empty pin current: Ix(u1:_u16a:vcom)
Ignoring empty pin current: Ix(u1:_u9a:vss)
Ignoring empty pin current: Ix(u1:_u9a:vcom)
Ignoring empty pin current: Ix(u1:_u5a:vss)
Ignoring empty pin current: Ix(u1:_u5a:vcom)
Ignoring empty pin current: Ix(u1:_u12a:vss)
Ignoring empty pin current: Ix(u1:_u12a:vcom)
Ignoring empty pin current: Ix(u1:_u1:vin)
Ignoring empty pin current: Ix(u1:_u1:vcom)

Date: Mon Feb 09 11:35:50 2015
Total elapsed time: 0.295 seconds.

tnom = 27
temp = 27
method = modified trap
totiter = 7742
traniter = 7725
tranpoints = 3212
accept = 2665
rejected = 547
matrix size = 44
fillins = 10
solver = Normal
Matrix Compiler1: 2.54 KB object code size  2.3/1.3/[0.9]
Matrix Compiler2: 3.03 KB object code size  1.5/2.1/[0.9]


