Stray ".ends" card: .ends
Circuit: * C:\Program Files (x86)\LTC_ALL\LTspiceIV_4.18_multiLibs\examples\Robertugo\Chaos&Noise\ChuaCir.asc

Direct Newton iteration for .op point succeeded.

Date: Mon Feb 09 12:10:24 2015
Total elapsed time: 0.129 seconds.

tnom = 27
temp = 27
method = modified trap
totiter = 5441
traniter = 5423
tranpoints = 1855
accept = 1424
rejected = 431
matrix size = 39
fillins = 50
solver = Normal
Matrix Compiler1: 4.41 KB object code size  1.5/0.9/[0.5]
Matrix Compiler2: 4.08 KB object code size  1.1/1.0/[0.6]


