Circuit: * C:\Program Files (x86)\LTC_ALL\LTspiceIV_4.18_multiLibs\examples\Educational\colpits2.asc

.OP point found by inspection.

Date: Sat Dec 06 23:26:21 2014
Total elapsed time: 0.445 seconds.

tnom = 27
temp = 27
method = modified trap
totiter = 98256
traniter = 98256
tranpoints = 32496
accept = 23397
rejected = 9099
matrix size = 8
fillins = 0
solver = Normal
Matrix Compiler1: 460 bytes object code size  0.3/0.3/[0.2]
Matrix Compiler2: 608 bytes object code size  0.3/0.3/[0.2]


