Circuit: * C:\Program Files (x86)\LTC_ALL\LTspiceIV_4.18_multiLibs\examples\Educational\colpits.asc

WARNING: Node N004 is floating.

.OP point found by inspection.

Date: Sat Dec 06 23:25:45 2014
Total elapsed time: 0.263 seconds.

tnom = 27
temp = 27
method = modified trap
totiter = 46217
traniter = 46217
tranpoints = 17810
accept = 12536
rejected = 5274
matrix size = 9
fillins = 2
solver = Normal
Matrix Compiler1: 590 bytes object code size  0.5/0.4/[0.4]
Matrix Compiler2: 715 bytes object code size  0.4/0.5/[0.3]


