Circuit: * C:\Program Files (x86)\LTC_ALL\LTspiceIV_4.18_multiLibs\examples\Educational\curvetrace.asc

Warning: Multiple definitions of model "bc846b" Type: BJT
Warning: Multiple definitions of model "bc857a" Type: BJT
Warning: Multiple definitions of model "bc847b" Type: BJT
Warning: Multiple definitions of model "bcw68f" Type: BJT
Warning: Multiple definitions of model "bcw60c" Type: BJT
Warning: Multiple definitions of model "ztx1048a" Type: BJT
Warning: Multiple definitions of model "ztx849" Type: BJT
.step i1=1e-005
.step i1=2e-005
.step i1=3e-005
.step i1=4e-005
.step i1=5e-005
.step i1=6e-005
.step i1=7e-005
.step i1=8e-005
.step i1=9e-005
.step i1=0.0001

Date: Sat Dec 06 23:25:32 2014
Total elapsed time: 0.511 seconds.

tnom = 27
temp = 27
method = trap
totiter = 30082
traniter = 0
tranpoints = 0
accept = 0
rejected = 0
matrix size = 6
fillins = 0
solver = Normal
Matrix Compiler1: 360 bytes object code size  0.3/0.2/[0.2]
Matrix Compiler2: 462 bytes object code size  0.2/0.2/[0.2]


