Circuit: * C:\Program Files (x86)\LTC_ALL\LTspiceIV_4.18_multiLibs\examples\LTspiceWorldTour2009\Analis&Aids\Wav\WaveOut.asc

V4: Removing PWL point (0.7,0)
V4: Removing PWL point (1.4,0)
V4: Removing PWL point (3.2,0)
V4: Removing PWL point (3.9,0)
WARNING: Less than two connections to node SYN.  This node is used by B1.
.OP point found by inspection.

Date: Mon Feb 09 11:53:40 2015
Total elapsed time: 0.890 seconds.

tnom = 27
temp = 27
method = modified trap
totiter = 149880
traniter = 149880
tranpoints = 67323
accept = 40451
rejected = 26872
matrix size = 8
fillins = 0
solver = Normal
Matrix Compiler1: 156 bytes object code size  0.2/0.2/[0.1]
Matrix Compiler2: 358 bytes object code size  0.2/0.2/[0.1]


