Circuit: * C:\Program Files (x86)\LTC_ALL\LTspiceIV_4.18_multiLibs\examples\LTspiceWorldTour2009\Analis&Aids\Wav\WireCurrent.asc

.OP point found by inspection.

Date: Mon Feb 09 11:53:21 2015
Total elapsed time: 0.052 seconds.

tnom = 27
temp = 27
method = modified trap
totiter = 2272
traniter = 2272
tranpoints = 1137
accept = 1118
rejected = 19
matrix size = 5
fillins = 0
solver = Normal
Matrix Compiler1: 364 bytes object code size  0.2/0.2/[0.2]
Matrix Compiler2: 403 bytes object code size  0.2/0.2/[0.2]


