Circuit: * C:\Program Files (x86)\LTC_ALL\LTspiceIV_4.18_multiLibs\examples\Robertugo\Audio\Class H & Univ Smps.asc

Direct Newton iteration for .op point skipped.
Starting Gmin stepping
Gmin = 10
Gmin = 1.07374
Gmin = 0.115292
Gmin = 0.0123794
Gmin = 0.00132923
Gmin = 0.000142725
Gmin = 1.5325e-005
Gmin = 1.6455e-006
vernier = 0.5
vernier = 0.25
vernier = 0.125
vernier = 0.0625
vernier = 0.03125
vernier = 0.015625
vernier = 0.0078125
vernier = 0.00390625
vernier = 0.00195313
Gmin = 1.6455e-006
vernier = 0.000976563
vernier = 0.000488281
Gmin = 0
Gmin stepping failed

Starting source stepping with srcstepmethod=0
Source Step = 3.0303%
Source Step = 33.3333%
Source Step = 63.6364%
Source Step = 75.7605%
Starting source stepping with srcstepmethod=1
Source Step = 3.0303%
Source Step = 33.3333%
Source Step = 58.3333%
vernier = 0.0625
Source stepping failed

Pseudo Transient failed in finding the operating point.
Trouble finding operating point....skipping operating point for Transient analysis.
Ignoring empty pin current: Ix(u1:vdd)
Ignoring empty pin current: Ix(u2:vdd)
Ignoring empty pin current: Ix(u3:vdd)
Ignoring empty pin current: Ix(u4:vdd)
Ignoring empty pin current: Ix(u6:vdd)
Ignoring empty pin current: Ix(u7:vdd)
Ignoring empty pin current: Ix(u8:vdd)
Ignoring empty pin current: Ix(u9:vdd)
Ignoring empty pin current: Ix(u1:in1:vdd)
Ignoring empty pin current: Ix(u1:out:vdd)
Ignoring empty pin current: Ix(u2:in1:vdd)
Ignoring empty pin current: Ix(u2:out:vdd)
Ignoring empty pin current: Ix(u3:in1:vdd)
Ignoring empty pin current: Ix(u3:out:vdd)
Ignoring empty pin current: Ix(u4:in1:vdd)
Ignoring empty pin current: Ix(u4:out:vdd)
Ignoring empty pin current: Ix(u6:in1:vdd)
Ignoring empty pin current: Ix(u6:out:vdd)
Ignoring empty pin current: Ix(u7:in1:vdd)
Ignoring empty pin current: Ix(u7:out:vdd)
Ignoring empty pin current: Ix(u8:in1:vdd)
Ignoring empty pin current: Ix(u8:out:vdd)
Ignoring empty pin current: Ix(u9:in1:vdd)
Ignoring empty pin current: Ix(u9:out:vdd)

Date: Mon Feb 09 12:11:07 2015
Total elapsed time: 21.738 seconds.

tnom = 27
temp = 27
method = modified trap
totiter = 407916
traniter = 0
tranpoints = 1
accept = 1
rejected = 78210
matrix size = 224
fillins = 468
solver = Normal
Thread vector: 44.2/24.2[4] 14.0/7.1[4] 5.6/3.6[4] 2.1/2.6[1]  2592/500
Matrix Compiler1: 51.2 KB object code size  17.0/10.1/[5.5]
Matrix Compiler2: 26.6 KB object code size  7.5/6.8/[3.8]


