Stray ".ends" card: .ends
Stray ".ends" card: .ends
Stray ".ends" card: .ends
Circuit: * Z:\home\koblitz\Simulationsbeispiele_SS15\Elektronik_lab\dienstag\class-A-B.asc

Direct Newton iteration for .op point succeeded.
Ignoring empty pin current: Ix(u1:inp)
Ignoring empty pin current: Ix(u1:inm)
Ignoring empty pin current: Ix(u1:inp)
Ignoring empty pin current: Ix(u1:inm)

Date: Tue May 12 15:22:10 2015
Total elapsed time: 0.171 seconds.

tnom = 27
temp = 27
method = modified trap
totiter = 2179
traniter = 2175
tranpoints = 1057
accept = 1055
rejected = 2
matrix size = 25
fillins = 16
solver = Normal
Matrix Compiler1: 1,66 KB object code size  4.1/3.7/[2.3]
Matrix Compiler2: off  [2.7]/3.5/3.3


