Stray ".ends" card: .ends
Stray ".ends" card: .ends
Stray ".ends" card: .ends
Circuit: * Z:\home\koblitz\Simulationsbeispiele_SS15\Elektronik_lab\dienstag\diff_a1-transfer.asc


Date: Tue Apr 28 14:08:28 2015
Total elapsed time: 0.117 seconds.

tnom = 27
temp = 27
method = trap
totiter = 2207
traniter = 0
tranpoints = 0
accept = 0
rejected = 0
matrix size = 18
fillins = 2
solver = Normal
Matrix Compiler1: 1,02 KB object code size  2.9/3.1/[2.1]
Matrix Compiler2: 1,41 KB object code size  2.3/3.2/[2.2]


