Stray ".ends" card: .ends
Stray ".ends" card: .ends
Stray ".ends" card: .ends
Circuit: * Z:\home\koblitz\Simulationsbeispiele_SS15\Elektronik_lab\dienstag\diff_a2-315.asc

.step re=0.01
.step re=330

Date: Tue Apr 28 14:23:18 2015
Total elapsed time: 0.093 seconds.

tnom = 27
temp = 27
method = trap
totiter = 610
traniter = 0
tranpoints = 0
accept = 0
rejected = 0
matrix size = 13
fillins = 0
solver = Normal
Matrix Compiler1: 674 Bytes object code size  1.9/1.6/[1.7]
Matrix Compiler2: off  [1.6]/1.8/1.7


