Circuit: * Z:\home\mainster\CODES_local\LTSpice_projects\EAS_Labor1\fet1\BS170_BF245_Kennwerte_fet1.asc

Instance "m:m1:2": Length shorter than recommended for a level 1 MOSFET.
Instance "m:m3:2": Length shorter than recommended for a level 1 MOSFET.

Date: Thu Dec 18 15:10:23 2014
Total elapsed time: 0.069 seconds.

tnom = 27
temp = 27
method = trap
totiter = 615
traniter = 0
tranpoints = 0
accept = 0
rejected = 0
matrix size = 34
fillins = 0
solver = Normal
Matrix Compiler1: 2.55 KB object code size  2.3/1.2/[1.0]
Matrix Compiler2: 3.01 KB object code size  1.0/1.2/[0.9]


