Questionable use of curly braces in "v2 n002 0 {freq11}"
    Error: undefined symbol in: "[freq11]"
Circuit: * Z:\media\data\CODES\LTSpice_projects\koblitz\negativ_resistor.asc

Error on line 10 : v2 n002 0  (freq11) 
	 Unknown parameter "freq11"
WARNING: Less than two connections to node IN.  This node is used by V1.
WARNING: Less than two connections to node N002.  This node is used by V2.
V2: Missing value, assumed 0V @ DC
Direct Newton iteration failed to find .op point.  (Use ".option noopiter" to skip.)
Starting Gmin stepping
Gmin = 10
Gmin = 1.07374
Gmin = 0.115292
Gmin = 0.0123794
Gmin = 0.00132923
Gmin = 0.000142725
Gmin = 1.5325e-005
Gmin = 1.6455e-006
Gmin = 1.76685e-007
Gmin = 1.89714e-008
Gmin = 2.03704e-009
Gmin = 2.18725e-010
Gmin = 2.34854e-011
Gmin = 2.52173e-012
Gmin = 2.70769e-013
Gmin = 0
Gmin stepping succeeded in finding the operating point.


t2: v(out)=0 AT 3.27234e-005
t1: v(out)=0 AT 2.92637e-005
freq11: 1/(t2-t1)=289046


Date: Fri Jul 05 13:48:35 2013
Total elapsed time: 0.059 seconds.

tnom = 27
temp = 27
method = modified trap
totiter = 4383
traniter = 3999
tranpoints = 1160
accept = 1100
rejected = 60
matrix size = 14
fillins = 2
solver = Normal
Matrix Compiler1: 554 Bytes object code size  0.7/0.5/[0.5]
Matrix Compiler2: off  [0.5]/0.7/0.9


