Circuit: * C:\Program Files (x86)\LTC_ALL\LTspiceIV_4.18_multiLibs\examples\PowerConverting\FlyBackDemp.asc

.OP point found by inspection.

Date: Mon Feb 09 12:08:04 2015
Total elapsed time: 2.053 seconds.

tnom = 27
temp = 27
method = modified trap
totiter = 319017
traniter = 319017
tranpoints = 91663
accept = 61861
rejected = 29802
matrix size = 11
fillins = 0
solver = Normal
Matrix Compiler1: 610 bytes object code size  0.7/0.5/[0.4]
Matrix Compiler2: 827 bytes object code size  0.4/0.5/[0.4]


