Circuit: * C:\Program Files (x86)\LTC_ALL\LTspiceIV_4.18_multiLibs\examples\LTspiceWorldTour2009\Tv_Video\1397.asc

Early termination of direct N-R iteration.
Direct Newton iteration failed to find .op point.  (Use ".option noopiter" to skip.)
Starting Gmin stepping
Gmin = 10
Gmin = 1.07374
Gmin = 0.115292
Gmin = 0.0123794
Gmin = 0.00132923
Gmin = 0.000142725
Gmin = 1.5325e-005
Gmin = 1.6455e-006
Gmin = 1.76685e-007
Gmin = 1.89714e-008
Gmin = 2.03704e-009
Gmin = 2.18725e-010
Gmin = 2.34854e-011
Gmin = 2.52173e-012
Gmin = 2.70769e-013
Gmin = 0
Gmin stepping succeeded in finding the operating point.


Date: Mon Feb 09 11:59:30 2015
Total elapsed time: 0.199 seconds.

tnom = 27
temp = 27
method = modified trap
totiter = 2392
traniter = 2082
tranpoints = 1042
accept = 1042
rejected = 0
matrix size = 47
fillins = 78
solver = Normal
Thread vector: 30.1/19.7[2] 9.3/7.6[2] 2.7/4.1[1] 0.5/3.5[1]  2592/500
Matrix Compiler1: 7.42 KB object code size  3.0/2.1/[0.8]
Matrix Compiler2: 6.95 KB object code size  2.1/1.8/[0.9]


