Circuit: * C:\Program Files (x86)\LTC_ALL\LTspiceIV_4.18_multiLibs\examples\LTspiceWorldTour2009\Tv_Video\RoundTrip.asc

Direct Newton iteration failed to find .op point.  (Use ".option noopiter" to skip.)
Gmin stepping method for .op point skipped.
Starting source stepping with srcstepmethod=0
Source Step = 3.0303%
Source Step = 33.3333%
Source Step = 63.6364%
Source Step = 93.9394%
Source stepping succeeded in finding the operating point.


Date: Mon Feb 09 11:58:57 2015
Total elapsed time: 0.351 seconds.

tnom = 27
temp = 27
method = modified trap
totiter = 2279
traniter = 2093
tranpoints = 1047
accept = 1045
rejected = 2
matrix size = 95
fillins = 167
solver = Normal
Thread vector: 69.1/41.5[5] 34.3/13.5[5] 6.5/7.4[1] 1.2/2.2[1]  2592/500
Matrix Compiler1: 15.8 KB object code size  6.1/3.4/[1.7]
Matrix Compiler2: 14.4 KB object code size  3.6/3.2/[2.0]


