Circuit: * C:\Program Files (x86)\LTC_ALL\LTspiceIV_4.18_multiLibs\examples\Educational\PAsystem\PowerAmpLayout.asc

Direct Newton iteration for .op point succeeded.
.step a=0.1
N-Period=1
Fourier components of I(speaker)
DC component:-0.000656308

Harmonic	Frequency	 Fourier 	Normalized	 Phase  	Normalized
 Number 	  [Hz]   	Component	 Component	[degree]	Phase [deg]
    1   	1.000e+03	2.230e-01	1.000e+00	    2.24°	    0.00°
    2   	2.000e+03	4.771e-05	2.139e-04	 -123.51°	 -125.76°
    3   	3.000e+03	7.205e-05	3.231e-04	   16.73°	   14.49°
    4   	4.000e+03	1.539e-05	6.902e-05	  179.14°	  176.90°
    5   	5.000e+03	1.177e-05	5.280e-05	 -178.72°	 -180.96°
    6   	6.000e+03	1.021e-05	4.579e-05	 -179.97°	 -182.21°
    7   	7.000e+03	9.157e-06	4.107e-05	 -178.44°	 -180.68°
    8   	8.000e+03	7.634e-06	3.424e-05	 -179.60°	 -181.84°
    9   	9.000e+03	6.766e-06	3.034e-05	 -179.89°	 -182.13°
Total Harmonic Distortion: 0.040446%(0.041391%)


.step a=0.2
N-Period=1
Fourier components of I(speaker)
DC component:-0.00128716

Harmonic	Frequency	 Fourier 	Normalized	 Phase  	Normalized
 Number 	  [Hz]   	Component	 Component	[degree]	Phase [deg]
    1   	1.000e+03	4.450e-01	1.000e+00	    2.23°	    0.00°
    2   	2.000e+03	1.582e-04	3.554e-04	 -106.29°	 -108.52°
    3   	3.000e+03	3.200e-04	7.190e-04	   18.13°	   15.89°
    4   	4.000e+03	3.000e-05	6.742e-05	 -171.37°	 -173.60°
    5   	5.000e+03	6.972e-05	1.567e-04	   25.17°	   22.94°
    6   	6.000e+03	2.020e-05	4.539e-05	 -178.00°	 -180.23°
    7   	7.000e+03	6.315e-06	1.419e-05	  147.13°	  144.89°
    8   	8.000e+03	1.565e-05	3.517e-05	  177.86°	  175.62°
    9   	9.000e+03	1.846e-05	4.147e-05	 -168.04°	 -170.27°
Total Harmonic Distortion: 0.082317%(0.082810%)

.step a=0.3
N-Period=1
Fourier components of I(speaker)
DC component:-0.00189556

Harmonic	Frequency	 Fourier 	Normalized	 Phase  	Normalized
 Number 	  [Hz]   	Component	 Component	[degree]	Phase [deg]
    1   	1.000e+03	6.666e-01	1.000e+00	    2.22°	    0.00°
    2   	2.000e+03	3.455e-04	5.184e-04	  -98.76°	 -100.99°
    3   	3.000e+03	5.455e-04	8.184e-04	   20.56°	   18.33°
    4   	4.000e+03	4.628e-05	6.943e-05	 -179.42°	 -181.64°
    5   	5.000e+03	1.126e-04	1.689e-04	   31.45°	   29.22°
    6   	6.000e+03	2.906e-05	4.360e-05	 -169.23°	 -171.46°
    7   	7.000e+03	6.582e-05	9.875e-05	   36.31°	   34.09°
    8   	8.000e+03	2.214e-05	3.321e-05	 -175.42°	 -177.64°
    9   	9.000e+03	1.513e-05	2.270e-05	   65.57°	   63.35°
Total Harmonic Distortion: 0.099248%(0.099658%)

.step a=0.4
N-Period=1
Fourier components of I(speaker)
DC component:-0.00247149

Harmonic	Frequency	 Fourier 	Normalized	 Phase  	Normalized
 Number 	  [Hz]   	Component	 Component	[degree]	Phase [deg]
    1   	1.000e+03	8.871e-01	1.000e+00	    2.21°	    0.00°
    2   	2.000e+03	6.619e-04	7.461e-04	  -93.79°	  -96.00°
    3   	3.000e+03	1.214e-03	1.368e-03	   18.69°	   16.47°
    4   	4.000e+03	7.309e-05	8.239e-05	  160.21°	  158.00°
    5   	5.000e+03	4.309e-05	4.858e-05	   97.60°	   95.38°
    6   	6.000e+03	3.843e-05	4.332e-05	 -166.89°	 -169.11°
    7   	7.000e+03	9.490e-05	1.070e-04	   42.20°	   39.99°
    8   	8.000e+03	2.860e-05	3.224e-05	 -171.25°	 -173.47°
    9   	9.000e+03	5.723e-05	6.451e-05	   49.07°	   46.85°
Total Harmonic Distortion: 0.156705%(0.156951%)

.step a=0.5
N-Period=1
Fourier components of I(speaker)
DC component:-0.00299565

Harmonic	Frequency	 Fourier 	Normalized	 Phase  	Normalized
 Number 	  [Hz]   	Component	 Component	[degree]	Phase [deg]
    1   	1.000e+03	1.106e+00	1.000e+00	    2.20°	    0.00°
    2   	2.000e+03	1.195e-03	1.080e-03	  -90.24°	  -92.45°
    3   	3.000e+03	2.773e-03	2.508e-03	   16.75°	   14.55°
    4   	4.000e+03	1.422e-04	1.286e-04	  137.24°	  135.04°
    5   	5.000e+03	2.336e-04	2.112e-04	 -173.53°	 -175.73°
    6   	6.000e+03	4.731e-05	4.279e-05	 -161.45°	 -163.65°
    7   	7.000e+03	8.950e-05	8.094e-05	   55.60°	   53.40°
    8   	8.000e+03	3.569e-05	3.227e-05	 -169.60°	 -171.80°
    9   	9.000e+03	7.519e-05	6.800e-05	   54.53°	   52.33°
Total Harmonic Distortion: 0.274417%(0.274582%)

.step a=0.6
N-Period=1
Fourier components of I(speaker)
DC component:-0.00377366

Harmonic	Frequency	 Fourier 	Normalized	 Phase  	Normalized
 Number 	  [Hz]   	Component	 Component	[degree]	Phase [deg]
    1   	1.000e+03	1.320e+00	1.000e+00	    2.18°	    0.00°
    2   	2.000e+03	1.021e-03	7.739e-04	  -94.41°	  -96.59°
    3   	3.000e+03	6.897e-03	5.226e-03	   15.22°	   13.04°
    4   	4.000e+03	6.533e-04	4.950e-04	  -81.48°	  -83.66°
    5   	5.000e+03	1.605e-03	1.216e-03	 -161.38°	 -163.56°
    6   	6.000e+03	7.451e-04	5.645e-04	  119.13°	  116.95°
    7   	7.000e+03	7.649e-04	5.795e-04	   33.53°	   31.35°
    8   	8.000e+03	5.119e-04	3.878e-04	  -60.54°	  -62.72°
    9   	9.000e+03	4.087e-04	3.097e-04	 -147.18°	 -149.36°
Total Harmonic Distortion: 0.552541%(0.554066%)

.step a=0.7
N-Period=1
Fourier components of I(speaker)
DC component:-0.00525477

Harmonic	Frequency	 Fourier 	Normalized	 Phase  	Normalized
 Number 	  [Hz]   	Component	 Component	[degree]	Phase [deg]
    1   	1.000e+03	1.491e+00	1.000e+00	    2.10°	    0.00°
    2   	2.000e+03	3.197e-03	2.145e-03	  -94.30°	  -96.40°
    3   	3.000e+03	4.511e-02	3.026e-02	    9.96°	    7.86°
    4   	4.000e+03	1.284e-03	8.613e-04	   85.68°	   83.58°
    5   	5.000e+03	2.485e-02	1.667e-02	 -167.48°	 -169.58°
    6   	6.000e+03	1.377e-03	9.240e-04	  -88.89°	  -90.99°
    7   	7.000e+03	1.261e-02	8.461e-03	   13.72°	   11.62°
    8   	8.000e+03	1.024e-03	6.873e-04	  119.40°	  117.30°
    9   	9.000e+03	4.830e-03	3.240e-03	 -174.20°	 -176.30°
Total Harmonic Distortion: 3.581327%(3.587033%)


Date: Mon Feb 09 11:25:43 2015
Total elapsed time: 5.991 seconds.

tnom = 27
temp = 27
method = modified trap
totiter = 20045
traniter = 20034
tranpoints = 10018
accept = 10018
rejected = 0
matrix size = 99
fillins = 137
solver = Normal
Matrix Compiler1: 16.0 KB object code size  5.7/3.5/[1.5]
Matrix Compiler2: 11.4 KB object code size  2.8/2.4/[1.2]


