Circuit: * C:\Program Files (x86)\LTC_ALL\LTspiceIV_4.18_multiLibs\lib\sym\MDB_sym\Draft1.asc

WARNING: Less than two connections to node ZM.  This node is used by B1.
WARNING: Less than two connections to node IN of instance R1:  Node and device optimized out.
.OP point found by inspection.

Date: Mon Jan 05 22:51:51 2015
Total elapsed time: 0.125 seconds.

tnom = 27
temp = 27
method = modified trap
totiter = 2088
traniter = 2088
tranpoints = 1045
accept = 1045
rejected = 0
matrix size = 3
fillins = 0
solver = Normal
Matrix Compiler1: 50 bytes object code size  0.3/0.3/[0.2]
Matrix Compiler2: 135 bytes object code size  0.2/0.3/[0.2]


