Circuit: * C:\Program Files (x86)\LTC_ALL\LTspiceIV_4.18_multiLibs\examples\LtSpicePlus\Digital\A_Devices\Mux_Demux\Mux-demux.asc

Direct Newton iteration for .op point succeeded.

Date: Mon Feb 09 11:34:08 2015
Total elapsed time: 0.345 seconds.

tnom = 27
temp = 27
method = modified trap
totiter = 38267
traniter = 38261
tranpoints = 19103
accept = 12195
rejected = 6908
matrix size = 35
fillins = 0
solver = Normal
Matrix Compiler1: 786 bytes object code size  0.6/0.3/[0.3]
Matrix Compiler2: 1.72 KB object code size  0.4/0.6/[0.3]


