Circuit: * C:\Program Files (x86)\LTC_ALL\LTspiceIV_4.18_multiLibs\examples\PowerConverting\BlockGen.asc

.OP point found by inspection.

Date: Mon Feb 09 12:07:37 2015
Total elapsed time: 1.820 seconds.

tnom = 27
temp = 27
method = modified trap
totiter = 201449
traniter = 201449
tranpoints = 100356
accept = 100264
rejected = 92
matrix size = 12
fillins = 4
solver = Normal
Matrix Compiler1: 1.07 KB object code size  0.4/0.3/[0.2]
Matrix Compiler2: 1.11 KB object code size  0.4/0.3/[0.2]


