Circuit: * C:\Program Files (x86)\LTC_ALL\LTspiceIV_4.18_multiLibs\examples\PowerConverting\FlyBackRevers.asc

WARNING: Less than two connections to node SW.  This node is used by L1.
Direct Newton iteration for .op point succeeded.

Date: Mon Feb 09 12:07:52 2015
Total elapsed time: 0.576 seconds.

tnom = 27
temp = 27
method = modified trap
totiter = 11327
traniter = 11324
tranpoints = 5239
accept = 4008
rejected = 1231
matrix size = 7
fillins = 0
solver = Normal
Matrix Compiler1: 384 bytes object code size  0.2/0.2/[0.2]
Matrix Compiler2: 515 bytes object code size  0.2/0.2/[0.2]


