Circuit: * C:\Program Files (x86)\LTC_ALL\LTspiceIV_4.18_multiLibs\examples\Motors\Driverx.asc

WARNING: Node CS is floating.
WARNING: Node TOP is floating.
WARNING: Node BOT is floating.

.OP point found by inspection.

Date: Mon Feb 09 12:05:54 2015
Total elapsed time: 0.057 seconds.

tnom = 27
temp = 27
method = modified trap
totiter = 2088
traniter = 2088
tranpoints = 1045
accept = 1045
rejected = 0
matrix size = 7
fillins = 0
solver = Normal
Matrix Compiler1: 362 bytes object code size  0.2/0.2/[0.2]
Matrix Compiler2: 515 bytes object code size  0.2/0.2/[0.1]


