Circuit: * C:\Program Files (x86)\LTC_ALL\LTspiceIV_4.18_multiLibs\examples\LTspiceWorldTour2009\Passives\Magnetics\Xformers\NonLinearTransformer.asc

.OP point found by inspection.
.step r=1e+006
.step r=1

Date: Mon Feb 09 11:57:57 2015
Total elapsed time: 0.062 seconds.

tnom = 27
temp = 27
method = modified trap
totiter = 2110
traniter = 2110
tranpoints = 1047
accept = 1046
rejected = 1
matrix size = 6
fillins = 0
solver = Normal
Matrix Compiler1: 200 bytes object code size  0.3/0.3/[0.2]
Matrix Compiler2: off  [0.3]/0.3/0.3


