Circuit: * C:\Program Files (x86)\LTC_ALL\LTspiceIV_4.18_multiLibs\examples\Robertugo\Challenge\4qAdc.asc

.OP point found by inspection.

Date: Mon Feb 09 12:09:14 2015
Total elapsed time: 0.113 seconds.

tnom = 27
temp = 27
method = modified trap
totiter = 2229
traniter = 2229
tranpoints = 1094
accept = 1082
rejected = 12
matrix size = 20
fillins = 0
solver = Normal
Matrix Compiler1: 1.42 KB object code size  0.5/0.4/[0.3]
Matrix Compiler2: 1.70 KB object code size  0.5/0.5/[0.3]


