Circuit: * C:\Program Files (x86)\LTC_ALL\LTspiceIV_4.18_multiLibs\examples\Robertugo\Challenge\FlashLed.asc

Direct Newton iteration for .op point succeeded.

Date: Mon Feb 09 12:08:35 2015
Total elapsed time: 0.105 seconds.

tnom = 27
temp = 27
method = modified trap
totiter = 2109
traniter = 2088
tranpoints = 1045
accept = 1045
rejected = 0
matrix size = 10
fillins = 0
solver = Normal
Matrix Compiler1: 640 bytes object code size  0.3/0.3/[0.3]
Matrix Compiler2: off  [0.2]/0.3/0.3


