Circuit: * Z:\home\mainster\CODES_local\LTSpice_projects\ltspice_github\tor-ctrl_torsten\tor-ctrl_v1.asc

Direct Newton iteration for .op point succeeded.

Date: Mon Jun 27 00:45:56 2016
Total elapsed time: 0.073 seconds.

tnom = 27
temp = 27
method = modified trap
totiter = 4307
traniter = 4301
tranpoints = 1946
accept = 1770
rejected = 176
matrix size = 8
fillins = 0
solver = Normal
Matrix Compiler1: 282 bytes object code size  1.6/1.4/[1.3]
Matrix Compiler2: 540 bytes object code size  1.4/1.4/[1.3]


