Circuit: * Z:\media\data\CODES\LTspiceWorkspace\LTspice_projects\op_diskret\ua741_diskret\ua741_diskret_moreRs_v2.asc

Rl: both pins shorted together -- ignoring.
WARNING: Less than two connections to node DV.  This node is used by B1.
WARNING: Less than two connections to node RPR.  This node is used by B2.
WARNING: Less than two connections to node RPL.  This node is used by B3.
Direct Newton iteration failed to find .op point.  (Use ".option noopiter" to skip.)
Starting Gmin stepping
Gmin = 10
Gmin = 1.07374
Gmin = 0.115292
Gmin = 0.0123794
Gmin = 0.00132923
Gmin = 0.000142725
Gmin = 1.5325e-005
Gmin = 1.6455e-006
Gmin = 1.76685e-007
Gmin = 1.89714e-008
Gmin = 2.03704e-009
Gmin = 2.18725e-010
Gmin = 2.34854e-011
Gmin = 2.52173e-012
Gmin = 2.70769e-013
Gmin = 0
Gmin stepping succeeded in finding the operating point.



Measurement "i0ma" FAIL'ed
gmdv: alpha*i0m/(2*vt)=0.000304923
sr: alpha*i0m/ccomp=1.05707e+006
ft: gmdv/(2*pi*ccomp)=3.23533e+006

Measurement "ft2" FAIL'ed


Date: Fri May 19 22:09:06 2017
Total elapsed time: 0.705 seconds.

tnom = 27
temp = 27
method = modified trap
totiter = 2667
traniter = 2088
tranpoints = 1045
accept = 1045
rejected = 0
matrix size = 43
fillins = 50
solver = Alternate
Thread vector: 16.2/10.0[2] 6.9/5.0[2] 5.5/2.8[2] 1.2/1.4[1]  2592/500
Matrix Compiler1: 7.15 KB object code size  2.3/1.6/[1.1]
Matrix Compiler2: 5.59 KB object code size  1.5/1.7/[1.1]

