Circuit: * C:\Program Files (x86)\LTC_ALL\LTspiceIV_4.18_multiLibs\examples\LtSpicePlus\Digital\A_Devices\CtrlFase\ctrl_phase_shift_1.asc

WARNING: Less than two connections to node B.  This node is used by B1.
Direct Newton iteration for .op point succeeded.

Date: Mon Feb 09 11:31:33 2015
Total elapsed time: 0.089 seconds.

tnom = 27
temp = 27
method = modified trap
totiter = 7623
traniter = 7618
tranpoints = 2315
accept = 1998
rejected = 317
matrix size = 14
fillins = 0
solver = Normal
Matrix Compiler1: 294 bytes object code size  0.2/0.2/[0.1]
Matrix Compiler2: 674 bytes object code size  0.2/0.3/[0.2]


