Circuit: * Z:\home\mainster\CODES_local\LTSpice_projects\strohrmann\faltungsintegral.asc

Direct Newton iteration for .op point succeeded.

Date: Wed Jan 07 05:37:45 2015
Total elapsed time: 0.040 seconds.

tnom = 27
temp = 27
method = modified trap
totiter = 2173
traniter = 2170
tranpoints = 1086
accept = 1085
rejected = 1
matrix size = 6
fillins = 0
solver = Normal
Matrix Compiler1: 110 bytes object code size  0.3/0.3/[0.2]
Matrix Compiler2: 346 bytes object code size  0.3/0.3/[0.3]


