Circuit: * Z:\home\mainster\CODES_local\LTSpice_projects\RPES\analog_pwm_conv_simple.asc

I1: both pins shorted together -- ignoring.
WARNING: Less than two connections to node NC_01.  This node is used by Q:U11:5.
WARNING: Less than two connections to node N007.  This node is used by V4.
WARNING: Less than two connections to node R6_IN_K.  This node is used by V5.
WARNING: Less than two connections to node R5_IN_K.  This node is used by V7.
WARNING: Less than two connections to node R7_IN_K.  This node is used by V8.
WARNING: Less than two connections to node PWM.  This node is used by E1.
WARNING: Less than two connections to node UP.  This node is used by B1.
WARNING: Less than two connections to node LO.  This node is used by B2.
Instance "m:u16:47": Length shorter than recommended for a level 1 MOSFET.
Instance "m:u16:51": Length shorter than recommended for a level 1 MOSFET.
Instance "m:u16:50": Length shorter than recommended for a level 1 MOSFET.
Instance "m:u16:45": Length shorter than recommended for a level 1 MOSFET.
Per .tran options, skipping operating point for transient analysis.
Changing Tseed to 4.88281e-009
Changing Tseed to 4.88281e-011
Changing Tseed to 4.88281e-008
Changing Tseed to 4.88281e-012
Changing Tseed to 4.88281e-007
Changing Tseed to 4.88281e-013
Changing Tseed to 4.88281e-006
Changing Tseed to 4.88281e-014
Changing Tseed to 4.88281e-005
Changing Tseed to 4.88281e-015
Changing Tseed to 0.000488281
Changing Tseed to 4.88281e-016
Heightened Def Con from 0 Changing Tseed to 1e-009
Changing Tseed to 1e-011
Changing Tseed to 1e-008
Changing Tseed to 1e-012
Changing Tseed to 1e-007
Changing Tseed to 1e-013
Changing Tseed to 1e-006
Changing Tseed to 1e-014
Changing Tseed to 1e-005
Changing Tseed to 1e-015
Changing Tseed to 0.0001
Changing Tseed to 1e-016
+Changing Tseed to 1e-009
Changing Tseed to 1e-011
Changing Tseed to 1e-008
Changing Tseed to 1e-012
Changing Tseed to 1e-007
Changing Tseed to 1e-013
Changing Tseed to 1e-006
Changing Tseed to 1e-014
Changing Tseed to 1e-005
Changing Tseed to 1e-015
Changing Tseed to 0.0001
Changing Tseed to 1e-016
+Changing Tseed to 1e-009
Changing Tseed to 1e-011
Changing Tseed to 1e-008
Changing Tseed to 1e-012
Changing Tseed to 1e-007
Changing Tseed to 1e-013
Changing Tseed to 1e-006
Changing Tseed to 1e-014
Changing Tseed to 1e-005
Changing Tseed to 1e-015
Changing Tseed to 0.0001
Changing Tseed to 1e-016
+Changing Tseed to 1e-009
Changing Tseed to 1e-011
Changing Tseed to 1e-008
Changing Tseed to 1e-012
Changing Tseed to 1e-007
Changing Tseed to 1e-013
Changing Tseed to 1e-006
Changing Tseed to 1e-014
Changing Tseed to 1e-005
Changing Tseed to 1e-015
Changing Tseed to 0.0001
Changing Tseed to 1e-016
+Changing Tseed to 1e-009
Changing Tseed to 1e-011
Changing Tseed to 1e-008
Changing Tseed to 1e-012
Changing Tseed to 1e-007
Changing Tseed to 1e-013
Changing Tseed to 1e-006
Changing Tseed to 1e-014
Changing Tseed to 1e-005
Changing Tseed to 1e-015
Changing Tseed to 0.0001
Changing Tseed to 1e-016
+Changing Tseed to 1e-009
Changing Tseed to 1e-011
Changing Tseed to 1e-008
Changing Tseed to 1e-012
Changing Tseed to 1e-007
Changing Tseed to 1e-013
Changing Tseed to 1e-006
Changing Tseed to 1e-014
Changing Tseed to 1e-005
Changing Tseed to 1e-015
Changing Tseed to 0.0001
Changing Tseed to 1e-016
+Changing Tseed to 1e-009
Changing Tseed to 1e-011
Changing Tseed to 1e-008
Changing Tseed to 1e-012
Changing Tseed to 1e-007
Changing Tseed to 1e-013
Changing Tseed to 1e-006
Changing Tseed to 1e-014
Changing Tseed to 1e-005
Changing Tseed to 1e-015
Changing Tseed to 0.0001
Changing Tseed to 1e-016
+Changing Tseed to 1e-009
Changing Tseed to 1e-011
Changing Tseed to 1e-008
Changing Tseed to 1e-012
Changing Tseed to 1e-007
Changing Tseed to 1e-013
Changing Tseed to 1e-006
Changing Tseed to 1e-014
Changing Tseed to 1e-005
Changing Tseed to 1e-015
Changing Tseed to 0.0001
Changing Tseed to 1e-016
+Changing Tseed to 1e-009
Changing Tseed to 1e-011
Changing Tseed to 1e-008
Changing Tseed to 1e-012
Changing Tseed to 1e-007
Changing Tseed to 1e-013
Changing Tseed to 1e-006
Changing Tseed to 1e-014
Changing Tseed to 1e-005
Changing Tseed to 1e-015
Changing Tseed to 0.0001
Changing Tseed to 1e-016
+Changing Tseed to 1e-009
Changing Tseed to 1e-011
Changing Tseed to 1e-008
Changing Tseed to 1e-012
Changing Tseed to 1e-007
Changing Tseed to 1e-013
Changing Tseed to 1e-006
Changing Tseed to 1e-014
Changing Tseed to 1e-005
Changing Tseed to 1e-015
Changing Tseed to 0.0001
Changing Tseed to 1e-016
+Changing Tseed to 1e-009
Changing Tseed to 1e-011
Changing Tseed to 1e-008
Changing Tseed to 1e-012
Changing Tseed to 1e-007
Changing Tseed to 1e-013
Changing Tseed to 1e-006
Changing Tseed to 1e-014
Changing Tseed to 1e-005
Changing Tseed to 1e-015
Changing Tseed to 0.0001
Changing Tseed to 1e-016
+Changing Tseed to 1e-009
Changing Tseed to 1e-011
Changing Tseed to 1e-008
Changing Tseed to 1e-012
Changing Tseed to 1e-007
Changing Tseed to 1e-013
Changing Tseed to 1e-006
Changing Tseed to 1e-014
Changing Tseed to 1e-005
Changing Tseed to 1e-015
Changing Tseed to 0.0001
Changing Tseed to 1e-016
+Changing Tseed to 1e-009
Changing Tseed to 1e-011
Changing Tseed to 1e-008
Changing Tseed to 1e-012
Changing Tseed to 1e-007
Changing Tseed to 1e-013
Changing Tseed to 1e-006
Changing Tseed to 1e-014
Changing Tseed to 1e-005
Changing Tseed to 1e-015
Changing Tseed to 0.0001
Changing Tseed to 1e-016
+Changing Tseed to 1e-009
Changing Tseed to 1e-011
Changing Tseed to 1e-008
Changing Tseed to 1e-012
Changing Tseed to 1e-007
Changing Tseed to 1e-013
Changing Tseed to 1e-006
Changing Tseed to 1e-014
Changing Tseed to 1e-005
Changing Tseed to 1e-015
Changing Tseed to 0.0001
Changing Tseed to 1e-016
+Changing Tseed to 1e-009
Changing Tseed to 1e-011
Changing Tseed to 1e-008
Changing Tseed to 1e-012
Changing Tseed to 1e-007
Changing Tseed to 1e-013
Changing Tseed to 1e-006
Changing Tseed to 1e-014
Changing Tseed to 1e-005
Changing Tseed to 1e-015
Changing Tseed to 0.0001
Changing Tseed to 1e-016
+Changing Tseed to 1e-009
Changing Tseed to 1e-011
Changing Tseed to 1e-008
Changing Tseed to 1e-012
Changing Tseed to 1e-007
Changing Tseed to 1e-013
Changing Tseed to 1e-006
Changing Tseed to 1e-014
Changing Tseed to 1e-005
Changing Tseed to 1e-015
Changing Tseed to 0.0001
Changing Tseed to 1e-016
+Changing Tseed to 1e-009
Changing Tseed to 1e-011
Changing Tseed to 1e-008
Changing Tseed to 1e-012
Changing Tseed to 1e-007
Changing Tseed to 1e-013
Changing Tseed to 1e-006
Changing Tseed to 1e-014
Changing Tseed to 1e-005
Changing Tseed to 1e-015
Changing Tseed to 0.0001
Changing Tseed to 1e-016
+Changing Tseed to 1e-009
Changing Tseed to 1e-011
Changing Tseed to 1e-008
Changing Tseed to 1e-012
Changing Tseed to 1e-007
Changing Tseed to 1e-013
Changing Tseed to 1e-006
Changing Tseed to 1e-014
Changing Tseed to 1e-005
Changing Tseed to 1e-015
Changing Tseed to 0.0001
Changing Tseed to 1e-016
+Changing Tseed to 1e-009
Changing Tseed to 1e-011
Changing Tseed to 1e-008
Changing Tseed to 1e-012
Changing Tseed to 1e-007
Changing Tseed to 1e-013
Changing Tseed to 1e-006
Changing Tseed to 1e-014
Changing Tseed to 1e-005
Changing Tseed to 1e-015
Changing Tseed to 0.0001
Changing Tseed to 1e-016
+Changing Tseed to 1e-009
Changing Tseed to 1e-011
Changing Tseed to 1e-008
Changing Tseed to 1e-012
Changing Tseed to 1e-007
Changing Tseed to 1e-013
Changing Tseed to 1e-006
Changing Tseed to 1e-014
Changing Tseed to 1e-005
Changing Tseed to 1e-015
Changing Tseed to 0.0001
Changing Tseed to 1e-016
+Changing Tseed to 1e-009
Changing Tseed to 1e-011
Changing Tseed to 1e-008
Changing Tseed to 1e-012
Changing Tseed to 1e-007
Changing Tseed to 1e-013
Changing Tseed to 1e-006
Changing Tseed to 1e-014
Changing Tseed to 1e-005
Changing Tseed to 1e-015
Changing Tseed to 0.0001
Changing Tseed to 1e-016
+Changing Tseed to 1e-009
Changing Tseed to 1e-011
Changing Tseed to 1e-008
Changing Tseed to 1e-012
Changing Tseed to 1e-007
Changing Tseed to 1e-013
Changing Tseed to 1e-006
Changing Tseed to 1e-014
Changing Tseed to 1e-005
Changing Tseed to 1e-015
Changing Tseed to 0.0001
Changing Tseed to 1e-016
+Changing Tseed to 1e-009
Changing Tseed to 1e-011
Changing Tseed to 1e-008
Changing Tseed to 1e-012
Changing Tseed to 1e-007
Changing Tseed to 1e-013
Changing Tseed to 1e-006
Changing Tseed to 1e-014
Changing Tseed to 1e-005
Changing Tseed to 1e-015
Changing Tseed to 0.0001
Changing Tseed to 1e-016
+Changing Tseed to 1e-009
Changing Tseed to 1e-011
Changing Tseed to 1e-008
Changing Tseed to 1e-012
Changing Tseed to 1e-007
Changing Tseed to 1e-013
Changing Tseed to 1e-006
Changing Tseed to 1e-014
Changing Tseed to 1e-005
Changing Tseed to 1e-015
Changing Tseed to 0.0001
Changing Tseed to 1e-016
+Changing Tseed to 1e-009
Changing Tseed to 1e-011
Changing Tseed to 1e-008
Changing Tseed to 1e-012
Changing Tseed to 1e-007
Changing Tseed to 1e-013
Changing Tseed to 1e-006
Changing Tseed to 1e-014
Changing Tseed to 1e-005
Changing Tseed to 1e-015
Changing Tseed to 0.0001
Changing Tseed to 1e-016
+Changing Tseed to 1e-009
Changing Tseed to 1e-011
to 1.125e-011
Heightened Def Con from 2.21782e-011 to 2.29106e-011
Heightened Def Con from 0.000488358 to 0.000488358
Heightened Def Con from 0.00248762 to 0.00248762
Heightened Def Con from 0.00448689 ++to 0.00448689
Heightened Def Con from 0.00448689 to 0.00448689
Heightened Def Con from 0.00750888 to 0.00750888
Heightened Def Con from 0.00848543 to 0.00848543
Heightened Def Con from 0.012484 to 0.012484
Heightened Def Con from 0.0135067 ++to 0.0135067
Heightened Def Con from 0.0135067 +to 0.0135067
Heightened Def Con from 0.015506 +++to 0.015506
Heightened Def Con from 0.015506 ++to 0.015506
Heightened Def Con from 0.0164825 +to 0.0164825
Heightened Def Con from 0.0164825 +to 0.0164825
Heightened Def Con from 0.0164825 to 0.0164825
Heightened Def Con from 0.0175052 ++to 0.0175052
Heightened Def Con from 0.0175052 +to 0.0175052
Heightened Def Con from 0.0184818 to 0.0184818
Heightened Def Con from 0.0195045 ++to 0.0195045
Heightened Def Con from 0.0195045 +to 0.0195045
Heightened Def Con from 0.0224803 to 0.0224803
Heightened Def Con from 0.0235031 +++to 0.0235031
Heightened Def Con from 0.0235031 ++to 0.0235031
Heightened Def Con from 0.0264789 to 0.0264789
Heightened Def Con from 0.0275016 +to 0.0275016
Heightened Def Con from 0.0284781 +to 0.0284781
Heightened Def Con from 0.0284781 to 0.0284781
Heightened Def Con from 0.0295009 ++++++to 0.0295009
Heightened Def Con from 0.0295009 ++to 0.0295009
Heightened Def Con from 0.0315001 ++++to 0.0315001
Heightened Def Con from 0.0315001 ++to 0.0315001
Heightened Def Con from 0.0324767 to 0.0324767
Heightened Def Con from 0.0334994 ++to 0.0334994
Heightened Def Con from 0.0334994 +to 0.0334994
Heightened Def Con from 0.0344759 to 0.0344759
Heightened Def Con from 0.0344759 ++++++++++to 0.0344759
Heightened Def Con from 0.0344759 +++++++++++to 0.0344759
Heightened Def Con from 0.0364752 +to 0.0364752
Heightened Def Con from 0.0364752 ++to 0.0364752
Heightened Def Con from 0.0364752 to 0.0364752
Heightened Def Con from 0.0364752 to 0.0364752
Heightened Def Con from 0.0364752 to 0.0364752
Heightened Def Con from 0.0384745 to 0.0384745
Heightened Def Con from 0.0384745 to 0.0384745
Heightened Def Con from 0.0384745 to 0.0384745
Heightened Def Con from 0.0384745 ++++++++++to 0.0384745
Heightened Def Con from 0.0384745 to 0.0384745
Heightened Def Con from 0.0394972 ++++to 0.0394972
Heightened Def Con from 0.0394972 ++to 0.0394972
Heightened Def Con from 0.0414965 +to 0.0414965
Heightened Def Con from 0.042473 to 0.042473
Heightened Def Con from 0.042473 ++++++++++to 0.042473
Heightened Def Con from 0.042473 to 0.042473
Heightened Def Con from 0.0434958 +++to 0.0434958
Heightened Def Con from 0.0434958 ++to 0.0434958
Heightened Def Con from 0.0484708 ++++++++++to 0.0484708
Heightened Def Con from 0.0484708 +++++++++++to 0.0484708
Heightened Def Con from 0.0494936 +++to 0.0494936
Heightened Def Con from 0.0494936 ++to 0.0494936

Date: Mon Jan 12 13:14:55 2015
Total elapsed time: 5.688 seconds.

tnom = 27
temp = 27
method = modified trap
totiter = 96137
traniter = 96137
tranpoints = 21335
accept = 14317
rejected = 6913
matrix size = 219
fillins = 232
solver = Normal
Thread vector: 57.9/35.3[3] 14.5/9.2[3] 9.7/6.8[3] 1.5/2.6[1]  2592/500
Matrix Compiler1: 20.7 KB object code size  7.9/2.5/[2.2]
Matrix Compiler2: 20.9 KB object code size  3.1/3.3/[2.4]


