Circuit: * Z:\home\mainster\CODES_local\LTSpice_projects\RPES\comparator_oc_complem.asc

I3: both pins shorted together -- ignoring.
WARNING: Less than two connections to node VREFF.  This node is used by V5.
Direct Newton iteration failed to find .op point.  (Use ".option noopiter" to skip.)
Starting Gmin stepping
Gmin = 10
Gmin = 1.07374
vernier = 0.5
vernier = 0.25
vernier = 0.125
vernier = 0.0625
Gmin = 1.02519
vernier = 0.03125
vernier = 0.015625
vernier = 0.0078125
vernier = 0.00390625
Gmin = 1.01821
vernier = 0.00195313
vernier = 0.00260417
Gmin = 1.01407
vernier = 0.00347222
vernier = 0.00173611
vernier = 0.000868055
vernier = 0.000434028
Gmin = 0
Gmin stepping succeeded in finding the operating point.


Date: Mon Dec 29 12:34:27 2014
Total elapsed time: 3.272 seconds.

tnom = 27
temp = 27
method = modified trap
totiter = 82217
traniter = 80413
tranpoints = 25056
accept = 19088
rejected = 5968
matrix size = 88
fillins = 75
solver = Normal
Matrix Compiler1: 8.95 KB object code size  4.7/2.5/[1.2]
Matrix Compiler2: 8.39 KB object code size  3.4/2.7/[1.2]


