Circuit: * Z:\home\mainster\CODES_local\LTSpice_projects\RPES\cree_spice_model.asc

.step ia=0
.step ia=0.01
.step ia=0.02
.step ia=0.03
.step ia=0.04
.step ia=0.05
.step ia=0.06
.step ia=0.07
.step ia=0.08
.step ia=0.09
.step ia=0.1
.step ia=0.11
.step ia=0.12
.step ia=0.13
.step ia=0.14
.step ia=0.15
.step ia=0.16
.step ia=0.17
.step ia=0.18
.step ia=0.19
.step ia=0.2
.step ia=0.21
.step ia=0.22
.step ia=0.23
.step ia=0.24
.step ia=0.25
.step ia=0.26
.step ia=0.27
.step ia=0.28
.step ia=0.29
.step ia=0.3
.step ia=0.31
.step ia=0.32
.step ia=0.33
.step ia=0.34
.step ia=0.35

Date: Tue Dec 09 21:55:19 2014
Total elapsed time: 0.563 seconds.

tnom = 27
temp = 27
method = trap
totiter = 764
traniter = 0
tranpoints = 0
accept = 0
rejected = 0
matrix size = 18
fillins = 0
solver = Normal
Matrix Compiler1: 638 bytes object code size  0.4/0.3/[0.3]
Matrix Compiler2: 1.12 KB object code size  0.3/0.5/[0.2]


