Circuit: * Z:\home\mainster\CODES_local\LTSpice_projects\RPES\Draft10.asc

WARNING: Less than two connections to node IS.  This node is used by V:U2:1.
Direct Newton iteration for .op point succeeded.

Date: Wed Dec 31 12:02:21 2014
Total elapsed time: 0.129 seconds.

tnom = 27
temp = 27
method = modified trap
totiter = 2100
traniter = 2090
tranpoints = 1046
accept = 1046
rejected = 0
matrix size = 28
fillins = 4
solver = Normal
Matrix Compiler1: 1.87 KB object code size  1.5/0.9/[0.6]
Matrix Compiler2: 2.25 KB object code size  1.1/1.3/[0.6]


