Circuit: * Z:\home\mainster\CODES_local\LTSpice_projects\RPES\ksq_op2.asc

WARNING: Specified period is not longer than the sum of Trise, Tfall, and Ton for v1.  Increasing period to 0.500002
Direct Newton iteration failed to find .op point.  (Use ".option noopiter" to skip.)
Starting Gmin stepping
Gmin = 10
Gmin = 1.07374
Gmin = 0.115292
Gmin = 0.0123794
Gmin = 0.00132923
Gmin = 0.000142725
Gmin = 1.5325e-005
Gmin = 1.6455e-006
Gmin = 1.76685e-007
Gmin = 1.89714e-008
Gmin = 2.03704e-009
Gmin = 2.18725e-010
Gmin = 2.34854e-011
Gmin = 2.52173e-012
Gmin = 2.70769e-013
Gmin = 0
Gmin stepping succeeded in finding the operating point.


Date: Thu Feb 12 15:46:38 2015
Total elapsed time: 0.193 seconds.

tnom = 27
temp = 27
method = modified trap
totiter = 3522
traniter = 3124
tranpoints = 1272
accept = 1224
rejected = 48
matrix size = 64
fillins = 67
solver = Normal
Matrix Compiler1: 5.63 KB object code size  2.4/1.1/[0.7]
Matrix Compiler2: 6.25 KB object code size  1.6/1.7/[0.9]


