Circuit: * Z:\home\mainster\CODES_local\LTSpice_projects\RPES\phase_reversal_comparator.asc

Instance "m:u1:47": Length shorter than recommended for a level 1 MOSFET.
Instance "m:u1:51": Length shorter than recommended for a level 1 MOSFET.
Instance "m:u1:50": Length shorter than recommended for a level 1 MOSFET.
Instance "m:u1:45": Length shorter than recommended for a level 1 MOSFET.
Direct Newton iteration failed to find .op point.  (Use ".option noopiter" to skip.)
Starting Gmin stepping
Gmin = 10
Gmin = 1.07374
Gmin = 0.115292
Gmin = 0.0123794
Gmin = 0.00132923
Gmin = 0.000142725
Gmin = 1.5325e-005
Gmin = 1.6455e-006
Gmin = 1.76685e-007
Gmin = 1.89714e-008
Gmin = 2.03704e-009
Gmin = 2.18725e-010
Gmin = 2.34854e-011
Gmin = 2.52173e-012
Gmin = 2.70769e-013
Gmin = 0
Gmin stepping succeeded in finding the operating point.

Heightened Def Con from 0.00411869 to 0.00411869
Heightened Def Con from 0.00411869 to 0.00411869
Heightened Def Con from 0.00411869 to 0.00411869
Heightened Def Con from 0.0214121 to 0.0214121
Heightened Def Con from 0.0214121 +to 0.0214121
Heightened Def Con from 0.0214121 to 0.0214121
Heightened Def Con from 0.0214121 +to 0.0214121
Heightened Def Con from 0.0214121 +to 0.0214121
Heightened Def Con from 0.0214121 +to 0.0214121
Heightened Def Con from 0.0214121 +to 0.0214121
Heightened Def Con from 0.0214121 +to 0.0214121
Heightened Def Con from 0.0214121 +to 0.0214121
Heightened Def Con from 0.0614121 to 0.0614121
Heightened Def Con from 0.0614121 +to 0.0614121
Heightened Def Con from 0.0614121 to 0.0614121
Heightened Def Con from 0.0614121 +to 0.0614121
Heightened Def Con from 0.0614121 +to 0.0614121
Heightened Def Con from 0.0614121 +to 0.0614121
Heightened Def Con from 0.0614121 +to 0.0614121
Heightened Def Con from 0.0614121 +to 0.0614121
Heightened Def Con from 0.0614121 +to 0.0614121
Heightened Def Con from 0.0841187 ++++++to 0.0841187
Heightened Def Con from 0.0841187 +++++++to 0.0841187
Heightened Def Con from 0.0841187 +++++++to 0.0841187
Heightened Def Con from 0.0841187 ++++++++to 0.0841187
Heightened Def Con from 0.0841187 +++++++++to 0.0841187
Heightened Def Con from 0.0841187 +++++++++to 0.0841187
Heightened Def Con from 0.0841187 ++to 0.0841187
Heightened Def Con from 0.0959253 +++++to 0.0959253
Heightened Def Con from 0.0959253 ++to 0.0959253

Date: Mon Dec 29 03:18:25 2014
Total elapsed time: 0.816 seconds.

tnom = 27
temp = 27
method = modified trap
totiter = 18920
traniter = 18442
tranpoints = 3417
accept = 2211
rejected = 1305
matrix size = 95
fillins = 61
solver = Normal
Thread vector: 26.9/17.2[3] 11.1/7.1[3] 4.9/5.2[1] 1.0/2.2[1]  2592/500
Matrix Compiler1: 7,31 KB object code size  4.9/2.5/[1.0]
Matrix Compiler2: 8,93 KB object code size  3.8/4.0/[1.4]


