Circuit: * Z:\home\mainster\CODES_local\LTSpice_projects\RPES\ramp_generator_discret_v2.asc

WARNING: Less than two connections to node SRC_OFF2.  This node is used by V1.
WARNING: Less than two connections to node SINK_OFF2.  This node is used by V2.
Per .tran options, skipping operating point for transient analysis.

Date: Fri Jan 02 04:15:29 2015
Total elapsed time: 1.221 seconds.

tnom = 27
temp = 27
method = modified trap
totiter = 63515
traniter = 63515
tranpoints = 19397
accept = 14575
rejected = 4822
matrix size = 62
fillins = 36
solver = Normal
Matrix Compiler1: 5.51 KB object code size  4.3/2.4/[1.1]
Matrix Compiler2: 5.45 KB object code size  2.8/2.1/[0.9]


