Circuit: * Z:\home\mainster\CODES_local\LTSpice_projects\RPES\tlv431_wieder_mal.asc

Direct Newton iteration failed to find .op point.  (Use ".option noopiter" to skip.)
Starting Gmin stepping
Gmin = 10
vernier = 0.5
Gmin = 1.67772
vernier = 0.25
vernier = 0.125
Gmin = 1.20453
vernier = 0.0625
vernier = 0.0833333
vernier = 0.0416667
Gmin = 1.12594
vernier = 0.0208333
vernier = 0.0277778
vernier = 0.0138889
Gmin = 1.09327
vernier = 0.0185185
vernier = 0.00925925
Gmin = 1.06829
vernier = 0.0123457
vernier = 0.00617283
vernier = 0.00823044
Gmin = 1.0533
vernier = 0.00411522
vernier = 0.00548696
Gmin = 1.04431
vernier = 0.00274348
vernier = 0.00365797
Gmin = 1.03789
vernier = 0.00182899
vernier = 0.00243865
Gmin = 1.033
vernier = 0.00325153
vernier = 0.00162576
Gmin = 1.0286
vernier = 0.00216769
vernier = 0.00108384
vernier = 0.00144512
Gmin = 1.026
vernier = 0.00192683
vernier = 0.000963415
Gmin = 1.02341
vernier = 0.00128455
vernier = 0.000642277
Gmin = 1.02111
vernier = 0.000856369
Gmin = 1.01915
vernier = 0.00114182
vernier = 0.000570912
vernier = 0.000761216
Gmin = 1.01784
vernier = 0.00101495
vernier = 0.000507477
Gmin = 1.01661
vernier = 0.000676636
vernier = 0.000902182
vernier = 0.000451091
Gmin = 1.01535
vernier = 0.000601454
vernier = 0.000451091
Gmin = 1.01432
vernier = 0.000601454
vernier = 0.000451091
Gmin = 1.01341
vernier = 0.000601454
vernier = 0.000451091
vernier = 0.000601454
vernier = 0.00045109
Gmin = 1.01272
Gmin = 0
Gmin stepping failed

Starting source stepping with srcstepmethod=0
Source Step = 3.0303%
Source Step = 33.3333%
Source Step = 47.3485%
Source Step = 47.4846%
Source Step = 47.5142%
Source Step = 47.5438%
Source Step = 47.5734%
Source Step = 47.603%
Source Step = 47.6326%
vernier = 0.00146484
Source Step = 47.677%
Source Step = 47.7214%
Source Step = 47.7657%
Source Step = 47.8101%
Source Step = 47.8545%
vernier = 0.00219727
Source Step = 47.9189%
Source Step = 47.9855%
Source Step = 48.0521%
Source Step = 48.1186%
Source Step = 48.1852%
vernier = 0.0032959
Source Step = 48.2784%
Source Step = 48.3783%
Source Step = 48.4782%
Source Step = 48.5781%
Source Step = 48.6779%
vernier = 0.00494385
Source Step = 48.8128%
Source Step = 48.9626%
Source Step = 49.1124%
Source Step = 49.2622%
Source Step = 49.412%
vernier = 0.00741577
Source Step = 49.6068%
Source Step = 49.8315%
Source Step = 50.0562%
Source Step = 50.2809%
Source Step = 50.5057%
vernier = 0.0111237
Source Step = 50.7866%
Source Step = 51.1236%
Source Step = 51.4607%
Source Step = 51.7978%
Source Step = 52.1349%
vernier = 0.0166855
Source Step = 52.5394%
Source Step = 53.045%
Source Step = 53.5506%
Source Step = 54.0562%
Source Step = 54.5619%
vernier = 0.0250282
Source Step = 55.1433%
Source Step = 55.9018%
Source Step = 56.6602%
Source Step = 57.4186%
Source Step = 58.1771%
vernier = 0.0375423
Source Step = 59.0113%
Source Step = 60.149%
Source Step = 61.2866%
Source Step = 62.4243%
Source Step = 63.5619%
vernier = 0.0563135
Source Step = 64.7564%
Source Step = 66.4629%
Source Step = 68.1694%
Source Step = 69.8759%
Source Step = 71.5823%
Source Step = 73.2888%
vernier = 0.0844703
Source Step = 75.8485%
Source Step = 78.4082%
Source Step = 80.9679%
Source Step = 83.5276%
Source Step = 86.0873%
vernier = 0.126705
Source Step = 89.7989%
Source Step = 91.3527%
Source Step = 91.4127%
Source Step = 91.4727%
Source Step = 91.5327%
Source Step = 91.5927%
Source Step = 91.6527%
Source Step = 91.7127%
Source Step = 91.7727%
Source Step = 91.8327%
Source Step = 91.8927%
Source Step = 91.9526%
Source Step = 92.0126%
Source Step = 92.0726%
Source Step = 92.1326%
Source Step = 92.1926%
Source Step = 92.2526%
Source Step = 92.3126%
Source Step = 92.3726%
Source Step = 92.4326%
Source Step = 92.4926%
Source Step = 92.5526%
vernier = 0.00296966
Source Step = 92.6366%
Source Step = 92.7266%
Source Step = 92.8166%
Source Step = 92.9065%
Source Step = 92.9965%
vernier = 0.00445449
Source Step = 93.118%
Source Step = 93.253%
Source Step = 93.388%
Source Step = 93.523%
Source Step = 93.658%
vernier = 0.00668173
Source Step = 93.8334%
Source Step = 94.0359%
Source Step = 94.2384%
Source Step = 94.4409%
Source Step = 94.6433%
vernier = 0.0100226
Source Step = 94.8964%
Source Step = 95.2002%
Source Step = 95.5039%
Source Step = 95.8076%
Source Step = 96.1113%
vernier = 0.0150339
Source Step = 96.4758%
Source Step = 96.9313%
Source Step = 97.3869%
Source Step = 97.8425%
Source Step = 98.298%
vernier = 0.0225508
Source Step = 98.822%
Source Step = 99.5053%
Source stepping succeeded in finding the operating point.

Ignoring empty pin current: Ix(u1:11)
Ignoring empty pin current: Ix(u1:11)

Date: Tue Dec 30 10:11:45 2014
Total elapsed time: 9.834 seconds.

tnom = 27
temp = 27
method = modified trap
totiter = 168339
traniter = 138295
tranpoints = 40050
accept = 27220
rejected = 12830
matrix size = 109
fillins = 123
solver = Normal
Thread vector: 17.9/12.2[2] 9.8/7.2[2] 3.7/4.4[1] 0.9/1.8[1]  2592/500
Matrix Compiler1: 11.5 KB object code size  5.9/3.3/[1.4]
Matrix Compiler2: 10.2 KB object code size  3.7/3.5/[1.4]


