Circuit: * Z:\home\mainster\CODES_local\LTSpice_projects\RPES\triangle.asc

WARNING: Less than two connections to node C2_IN_UF.  This node is used by V2.
Direct Newton iteration for .op point succeeded.
Heightened Def Con from 0.00123123 to 0.00123123

Date: Wed Dec 31 01:09:42 2014
Total elapsed time: 3.013 seconds.

tnom = 27
temp = 27
method = modified trap
totiter = 114662
traniter = 114625
tranpoints = 52502
accept = 32247
rejected = 20256
matrix size = 71
fillins = 54
solver = Normal
Matrix Compiler1: 5.19 KB object code size  5.0/2.5/[1.1]
Matrix Compiler2: 6.48 KB object code size  3.1/3.3/[1.4]


