Circuit: * Z:\home\mainster\CODES_local\LTSpice_projects\RPES\trifuck.asc

WARNING: Less than two connections to node VREF.  This node is used by V:U1:1.
WARNING: Less than two connections to node V+.  This node is used by V1.
WARNING: Less than two connections to node R6_IN_K.  This node is used by V2.
WARNING: Less than two connections to node R5_IN_K.  This node is used by V4.
WARNING: Less than two connections to node R7_IN_K.  This node is used by V5.
WARNING: Less than two connections to node UP.  This node is used by B1.
WARNING: Less than two connections to node LO.  This node is used by B2.
Direct Newton iteration failed to find .op point.  (Use ".option noopiter" to skip.)
Starting Gmin stepping
Gmin = 10
Gmin = 1.07374
Gmin = 0.115292
Gmin = 0.0123794
Gmin = 0.00132923
vernier = 0.5
Gmin = 0.000377665
vernier = 0.666667
vernier = 0.888888
vernier = 0.444444
vernier = 0.222222
Gmin = 0.00014977
vernier = 0.111111
vernier = 0.0555555
vernier = 0.0277778
Gmin = 0.000135216
vernier = 0.0138889
vernier = 0.00694444
vernier = 0.00347222
vernier = 0.00173611
Gmin = 0.000135041
vernier = 0.000868055
vernier = 0.000434028
Gmin = 0
Gmin stepping failed

Starting source stepping with srcstepmethod=0
Source Step = 3.0303%
Source Step = 33.3333%
Source Step = 40.0568%
vernier = 0.00390625
Source Step = 40.0361%
Source Step = 40.0657%
Source Step = 40.0953%
Source Step = 40.1249%
Source Step = 40.1545%
vernier = 0.00146484
Source Step = 40.1915%
Source Step = 40.2359%
Source Step = 40.2802%
Source Step = 40.3246%
Source Step = 40.369%
vernier = 0.00219727
Source Step = 40.4223%
Source Step = 40.4889%
Source Step = 40.5555%
Source Step = 40.622%
Source Step = 40.6886%
Source Step = 40.7552%
Source Step = 40.8218%
Source Step = 40.8884%
vernier = 0.0032959
Source Step = 40.9649%
Source Step = 41.0648%
Source Step = 41.1647%
Source Step = 41.2646%
Source Step = 41.3645%
vernier = 0.00494385
Source Step = 41.4743%
Source Step = 41.6241%
Source Step = 41.7739%
Source Step = 41.9238%
Source Step = 42.0736%
vernier = 0.00741577
Source Step = 42.2309%
Source Step = 42.4556%
Source Step = 42.6803%
Source Step = 42.905%
Source Step = 43.1298%
Source Step = 43.3545%
vernier = 0.0111237
Source Step = 43.6916%
Source Step = 44.0286%
Source Step = 44.3657%
Source Step = 44.7028%
Source Step = 45.0399%
vernier = 0.0166855
Source Step = 45.5286%
Source Step = 45.6487%
Source Step = 45.6803%
Source Step = 45.7119%
Source Step = 45.7435%
Source Step = 45.7751%
vernier = 0.00156426
Source Step = 45.8083%
Source Step = 45.8557%
Source Step = 45.9031%
Source Step = 45.9505%
Source Step = 45.9979%
Source Step = 46.0453%
vernier = 0.0023464
Source Step = 46.1164%
Source Step = 46.1875%
Source Step = 46.2586%
Source Step = 46.3297%
Source Step = 46.4008%
vernier = 0.00351959
Source Step = 46.5039%
Source Step = 46.6106%
Source Step = 46.7172%
Source Step = 46.8239%
Source Step = 46.9306%
vernier = 0.00527939
Source Step = 47.0799%
Source Step = 47.2399%
Source Step = 47.3998%
Source Step = 47.5598%
Source Step = 47.7198%
vernier = 0.00791909
Source Step = 47.9358%
Source Step = 48.1757%
Source Step = 48.4157%
Source Step = 48.6557%
Source Step = 48.8957%
vernier = 0.0118786
Source Step = 49.2076%
Source Step = 49.5676%
Source Step = 49.9275%
Source Step = 50.2875%
Source Step = 50.6475%
vernier = 0.0178179
Source Step = 51.0974%
Source Step = 51.6373%
Source Step = 52.1773%
Source Step = 52.7172%
Source Step = 53.2572%
vernier = 0.0267269
Source Step = 53.9051%
Source Step = 54.715%
Source Step = 55.5249%
Source Step = 56.3348%
Source Step = 57.1447%
vernier = 0.0400904
Source Step = 58.0761%
Source Step = 59.291%
Source Step = 60.5058%
Source Step = 61.7207%
Source Step = 62.9355%
vernier = 0.0601356
Source Step = 64.2719%
Source Step = 66.0942%
Source Step = 67.9165%
Source Step = 69.7388%
Source Step = 71.5611%
vernier = 0.0902034
Source Step = 73.4745%
Source Step = 76.2079%
Source Step = 78.9413%
Source Step = 81.6748%
Source Step = 81.7303%
Source Step = 81.773%
Source Step = 81.8157%
Source Step = 81.8584%
Source Step = 81.9011%
vernier = 0.00211414
Source Step = 81.9481%
Source Step = 82.0122%
Source Step = 82.0762%
Source Step = 82.1403%
Source Step = 82.2044%
vernier = 0.00317121
Source Step = 82.2716%
Source Step = 82.3677%
Source Step = 82.4638%
Source Step = 82.5599%
Source Step = 82.656%
Source Step = 82.7521%
vernier = 0.00475682
Source Step = 82.8963%
Source Step = 83.0404%
Source Step = 83.1846%
Source Step = 83.3287%
Source Step = 83.4729%
vernier = 0.00713523
Source Step = 83.6819%
Source Step = 83.8981%
Source Step = 84.1143%
Source Step = 84.3305%
Source Step = 84.5467%
vernier = 0.0107028
Source Step = 84.8494%
Source Step = 85.1738%
Source Step = 85.4981%
Source Step = 85.8224%
Source Step = 86.1468%
vernier = 0.0160543
Source Step = 86.5846%
Source Step = 87.0711%
Source Step = 87.5576%
Source Step = 88.0441%
Source Step = 88.5306%
vernier = 0.0240814
Source Step = 89.163%
Source Step = 89.8928%
Source Step = 90.2029%
Source Step = 90.2485%
Source Step = 90.2941%
Source Step = 90.3397%
Source Step = 90.3853%
Source Step = 90.4309%
Source Step = 90.4765%
Source Step = 90.5222%
Source Step = 90.5678%
Source Step = 90.6134%
Source Step = 90.659%
Source Step = 90.7046%
Source Step = 90.7502%
Source Step = 90.7958%
Source Step = 90.8414%
Source Step = 90.887%
Source Step = 90.9326%
Source Step = 90.9782%
Source Step = 91.0238%
Source Step = 91.0695%
Source Step = 91.1151%
Source Step = 91.1607%
Source Step = 91.2063%
Source Step = 91.2519%
Source Step = 91.2975%
Source Step = 91.3431%
Source Step = 91.3887%
Source Step = 91.4343%
Source Step = 91.4799%
Source Step = 91.5255%
Source Step = 91.5712%
Source Step = 91.6168%
Source Step = 91.6624%
Source Step = 91.708%
Source Step = 91.7536%
Source Step = 91.7992%
Source Step = 91.8448%
Source Step = 91.8904%
Source Step = 91.936%
Source Step = 91.9816%
Source Step = 92.0272%
Source Step = 92.0728%
Source Step = 92.1185%
Source Step = 92.1641%
Source Step = 92.2097%
Source Step = 92.2553%
Source Step = 92.3009%
Source Step = 92.3465%
Source Step = 92.3921%
Source Step = 92.4377%
Source Step = 92.4833%
Source Step = 92.5289%
Source Step = 92.5745%
Source Step = 92.6202%
Source Step = 92.6658%
Source Step = 92.7114%
Source Step = 92.757%
Source Step = 92.8026%
Source Step = 92.8482%
Source Step = 92.8938%
Source Step = 92.9394%
Source Step = 92.985%
Source Step = 93.0306%
Source Step = 93.0762%
Source Step = 93.1218%
Source Step = 93.1675%
Source Step = 93.2131%
Source Step = 93.2587%
Source Step = 93.3043%
Source Step = 93.3499%
Source Step = 93.3955%
Source Step = 93.4411%
Source Step = 93.4867%
Source Step = 93.5323%
Source Step = 93.5779%
Source Step = 93.6235%
Source Step = 93.6692%
Source Step = 93.7148%
Source Step = 93.7604%
Source Step = 93.806%
Source Step = 93.8516%
Source Step = 93.8972%
Source Step = 93.9428%
Source Step = 93.9884%
Source Step = 94.034%
Source Step = 94.0796%
Source Step = 94.1252%
Source Step = 94.1708%
Source Step = 94.2165%
Source Step = 94.2621%
Source Step = 94.3077%
Source Step = 94.3533%
Source Step = 94.3989%
Source Step = 94.4445%
Source Step = 94.4901%
Source Step = 94.5357%
Source Step = 94.5813%
Source Step = 94.6269%
Source Step = 94.6725%
Source Step = 94.7182%
Source Step = 94.7638%
Source Step = 94.8094%
Source Step = 94.855%
Source Step = 94.9006%
Source Step = 94.9462%
Source Step = 94.9918%
Source Step = 95.0374%
Source Step = 95.083%
Source Step = 95.1286%
Source Step = 95.1742%
Source Step = 95.2198%
Source Step = 95.2655%
Source Step = 95.3111%
Source Step = 95.3567%
Source Step = 95.4023%
Source Step = 95.4479%
Source Step = 95.4935%
Source Step = 95.5391%
Source Step = 95.5847%
Source Step = 95.6303%
Source Step = 95.6759%
Source Step = 95.7215%
Source Step = 95.7672%
Source Step = 95.8128%
Source Step = 95.8584%
Source Step = 95.904%
Source Step = 95.9496%
Source Step = 95.9952%
Source Step = 96.0408%
Source Step = 96.0864%
Source Step = 96.132%
Source Step = 96.1776%
Source Step = 96.2232%
Source Step = 96.2688%
Source Step = 96.3145%
Source Step = 96.3601%
Source Step = 96.4057%
Source Step = 96.4513%
Source Step = 96.4969%
Source Step = 96.5425%
Source Step = 96.5881%
Source Step = 96.6337%
Source Step = 96.6793%
Source Step = 96.7249%
Source Step = 96.7705%
Source Step = 96.8162%
Source Step = 96.8618%
Source Step = 96.9074%
Source Step = 96.953%
Source Step = 96.9986%
Source Step = 97.0442%
Source Step = 97.0898%
Source Step = 97.1354%
Source Step = 97.181%
Source Step = 97.2266%
Source Step = 97.2722%
Source Step = 97.3178%
Source Step = 97.3635%
Source Step = 97.4091%
Source Step = 97.4547%
Source Step = 97.5003%
Source Step = 97.5459%
Source Step = 97.5915%
Source Step = 97.6371%
Source Step = 97.6827%
Source Step = 97.7283%
Source Step = 97.7739%
Source Step = 97.8195%
Source Step = 97.8652%
Source Step = 97.9108%
Source Step = 97.9564%
Source Step = 98.002%
Source Step = 98.0476%
Source Step = 98.0932%
Source Step = 98.1388%
Source Step = 98.1844%
Source Step = 98.23%
Source Step = 98.2756%
Source Step = 98.3212%
Source Step = 98.3668%
Source Step = 98.4125%
Source Step = 98.4581%
Source Step = 98.5037%
Source Step = 98.5493%
Source Step = 98.5949%
Source Step = 98.6405%
Source Step = 98.6861%
Source Step = 98.7317%
Source Step = 98.7773%
Source Step = 98.8229%
Source Step = 98.8685%
Source Step = 98.9142%
Source Step = 98.9598%
Source Step = 99.0054%
Source Step = 99.051%
Source Step = 99.0966%
Source Step = 99.1422%
Source Step = 99.1878%
Source Step = 99.2334%
Source Step = 99.279%
Source Step = 99.3246%
Source Step = 99.3702%
Source Step = 99.4158%
Source Step = 99.4615%
Source Step = 99.5071%
Source Step = 99.5527%
Source Step = 99.5983%
Source Step = 99.6439%
Source Step = 99.6895%
Source Step = 99.7351%
Source Step = 99.7807%
Source Step = 99.8263%
Source Step = 99.8719%
Source Step = 99.9175%
Source Step = 99.9632%
Source Step = 100%
Source Step = 100%
Source Step = 100%
Source Step = 100%
Source Step = 100%
Source Step = 100%
Source Step = 100%
Source Step = 100%
Source Step = 100%
Source Step = 100%
Source Step = 100%
Source Step = 100%
Source Step = 100%
Source Step = 100%
Source Step = 100%
Source Step = 100%
Source Step = 100%
Source Step = 100%
Source Step = 100%
Source Step = 100%
Source Step = 100%
Source Step = 100%
Source Step = 100%
Source Step = 100%
Source Step = 100%
Source Step = 100%
Source Step = 100%
Source Step = 100%
Source Step = 100%
Source Step = 100%
Source Step = 100%
Source Step = 100%
Source Step = 100%
Source Step = 100%
Source Step = 100%
Source Step = 100%
Source Step = 100%
Source Step = 100%
Source Step = 100%
Source Step = 100%
Source Step = 100%
Source Step = 100%
Source Step = 100%
Source Step = 100%
Source Step = 100%
Source Step = 100%
Source Step = 100%
Source Step = 100%
Source Step = 100%
Source Step = 100%
Source Step = 100%
Source Step = 100%
Source Step = 100%
Source Step = 100%
Source Step = 100%
Source Step = 100%
Source Step = 100%
Source Step = 100%
Source Step = 100%
Source Step = 100%
Source Step = 100%
Source Step = 100%
Source Step = 100%
Source Step = 100%
Source Step = 100%
Source Step = 100%
Source Step = 100%
Source Step = 100%
Source Step = 100%
Source Step = 100%
Source Step = 100%
Source Step = 100%
Source Step = 100%
Source Step = 100%
Source Step = 100%
Source Step = 100%
Source Step = 100%
Source Step = 100%
Source Step = 100%
Source Step = 100%
Source Step = 100%
Source Step = 100%
Source Step = 100%
Source Step = 100%
Source Step = 100%
Source Step = 100%
Source Step = 100%
Source Step = 100%
Source Step = 100%
Source Step = 100%
Source Step = 100%
Source Step = 100%
Source Step = 100%
Source Step = 100%
Source Step = 100%
Source Step = 100%
Source Step = 100%
Source Step = 100%
Source Step = 100%
Source Step = 100%
Source Step = 100%
Source Step = 100%
Source Step = 100%
Source Step = 100%
Source Step = 100%
Source Step = 100%
Source Step = 100%
Source Step = 100%
Source Step = 100%
Source Step = 100%
Source Step = 100%
Source Step = 100%
Source Step = 100%
Source Step = 100%
Source Step = 100%
Source Step = 100%
Source Step = 100%
Source Step = 100%
Source Step = 100%
Source Step = 100%
Source Step = 100%
Source Step = 100%
Source Step = 100%
Source Step = 100%
Source Step = 100%
Source Step = 100%
Source Step = 100%
Source Step = 100%
Source Step = 100%
Source Step = 100%
Source Step = 100%
Source Step = 100%
Source Step = 100%
Source Step = 100%
Source Step = 100%
Source Step = 100%
Source Step = 100%
Source Step = 100%
Source Step = 100%
Source Step = 100%
Source Step = 100%
Source stepping aborted.
Starting source stepping with srcstepmethod=1
Source Step = 3.0303%
Source Step = 33.3333%
Source Step = 63.6364%
Source Step = 64.2401%
Source Step = 64.3584%
Source Step = 64.4028%
Source Step = 64.4324%
Source Step = 64.462%
Source Step = 64.4916%
Source Step = 64.5212%
vernier = 0.00146484
Source Step = 64.5567%
Source Step = 64.6011%
Source Step = 64.6455%
Source Step = 64.6899%
Source Step = 64.7343%
vernier = 0.00219727
Source Step = 64.7853%
Source Step = 64.8519%
Source Step = 64.9185%
Source Step = 64.9851%
Source Step = 65.0516%
vernier = 0.0032959
Source Step = 65.1249%
Source Step = 65.2248%
Source Step = 65.3246%
Source Step = 65.4245%
Source Step = 65.5244%
vernier = 0.00494385
Source Step = 65.6293%
Source Step = 65.7791%
Source Step = 65.9289%
Source Step = 66.0787%
Source Step = 66.2285%
Source Step = 66.3783%
vernier = 0.00741577
Source Step = 66.603%
Source Step = 66.8278%
Source Step = 67.0525%
Source Step = 67.2772%
Source Step = 67.5019%
vernier = 0.0111237
Source Step = 67.8278%
Source Step = 68.1648%
Source Step = 68.5019%
Source Step = 68.839%
Source Step = 69.1761%
vernier = 0.0166855
Source Step = 69.648%
Source Step = 70.1536%
Source Step = 70.6592%
Source Step = 71.1649%
Source Step = 71.6705%
vernier = 0.0250282
Source Step = 72.3531%
Source Step = 73.1115%
Source Step = 73.8699%
Source Step = 74.6284%
Source Step = 75.3868%
vernier = 0.0375423
Source Step = 76.3728%
Source Step = 77.5104%
Source Step = 78.6481%
Source Step = 79.7857%
Source Step = 80.9233%
vernier = 0.0563135
Source Step = 82.3454%
Source Step = 84.0519%
Source Step = 85.7583%
Source Step = 87.4648%
Source Step = 89.1713%
vernier = 0.0844703
Source Step = 90.5791%
Source Step = 90.6711%
Source Step = 90.7111%
Source Step = 90.7511%
Source Step = 90.7911%
Source Step = 90.8311%
Source Step = 90.8711%
Source Step = 90.9111%
Source Step = 90.9511%
Source Step = 90.9911%
Source Step = 91.0311%
Source Step = 91.0711%
Source Step = 91.1111%
Source Step = 91.1511%
Source Step = 91.1911%
Source Step = 91.231%
Source Step = 91.271%
Source Step = 91.311%
Source Step = 91.351%
Source stepping aborted.
Pseudo Transient failed in finding the operating point.
Trouble finding operating point....skipping operating point for Transient analysis.
Changing Tseed to 9.76562e-008
Changing Tseed to 9.76562e-010
Changing Tseed to 9.76562e-007
Changing Tseed to 9.76562e-011
Changing Tseed to 9.76562e-006
Changing Tseed to 9.76562e-012

Date: Mon Dec 29 14:05:10 2014
Total elapsed time: 33.896 seconds.

tnom = 27
temp = 27
method = modified trap
totiter = 375738
traniter = 60186
tranpoints = 18826
accept = 13560
rejected = 6878
matrix size = 79
fillins = 70
solver = Normal
Matrix Compiler1: 5.94 KB object code size  3.2/1.8/[0.8]
Matrix Compiler2: 6.99 KB object code size  3.1/3.3/[1.4]


