Circuit: * Z:\home\mainster\CODES_local\LTSpice_projects\galvoscanner\aktuell\analogregler\LoopGain_tests.asc

Direct Newton iteration for .op point succeeded.

Date: Wed Jun 10 18:40:27 2015
Total elapsed time: 0.057 seconds.

tnom = 27
temp = 27
method = trap
totiter = 3
traniter = 0
tranpoints = 0
accept = 0
rejected = 0
matrix size = 32
fillins = 8
solver = Normal
Matrix Compiler1:      81 opcodes
Matrix Compiler2: 2.41 KB object code size

