Circuit: * Z:\home\mainster\CODES_local\LTSpice_projects\galvoscanner\aktuell\example_circuits\LTC6090_HVIntegrator.asc

Direct Newton iteration for .op point succeeded.

Date: Sat Mar 21 01:01:14 2015
Total elapsed time: 0.131 seconds.

tnom = 27
temp = 27
method = modified trap
totiter = 2846
traniter = 2816
tranpoints = 1337
accept = 1264
rejected = 73
matrix size = 32
fillins = 21
solver = Normal
Thread vector: 14.9/10.6[2] 4.6/3.4[2] 1.4/1.7[1] 0.5/1.0[1]  2592/500
Matrix Compiler1: 2.21 KB object code size  1.2/0.8/[0.4]
Matrix Compiler2:     244 opcodes  0.9/[0.9]/1.0


