Circuit: * Z:\home\mainster\CODES_local\LTSpice_projects\galvoscanner\aktuell\example_circuits\LTC6090_LTC2054_DN513_F02.asc

WARNING: Less than two connections to node OUT.  This node is used by R9.
Direct Newton iteration for .op point succeeded.

Date: Sat Mar 21 01:00:24 2015
Total elapsed time: 0.196 seconds.

tnom = 27
temp = 27
method = modified trap
totiter = 3364
traniter = 3329
tranpoints = 1514
accept = 1345
rejected = 169
matrix size = 49
fillins = 25
solver = Normal
Thread vector: 23.7/13.5[3] 7.8/4.6[3] 2.4/2.2[1] 0.5/1.0[1]  2592/500
Matrix Compiler1: 5.07 KB object code size  2.1/1.3/[0.6]
Matrix Compiler2: 5.00 KB object code size  1.4/1.4/[0.9]


