Circuit: * Z:\home\mainster\CODES_local\LTSpice_projects\koblitz_EAS_klausuren\KSQ_bank.asc

R1: both pins shorted together -- ignoring.
WARNING: Less than two connections to node N004.  This node is used by B:U2:1.
WARNING: Less than two connections to node N005.  This node is used by B:U6:1.
WARNING: Less than two connections to node SSS.  This node is used by V2.
WARNING: Less than two connections to node RND.  This node is used by V1.
Direct Newton iteration failed to find .op point.  (Use ".option noopiter" to skip.)
Starting Gmin stepping
Gmin = 10
Gmin = 1.07374
Gmin = 0.115292
Gmin = 0.0123794
Gmin = 0.00132923
Gmin = 0.000142725
Gmin = 1.5325e-005
Gmin = 1.6455e-006
Gmin = 1.76685e-007
Gmin = 1.89714e-008
Gmin = 2.03704e-009
Gmin = 2.18725e-010
Gmin = 2.34854e-011
Gmin = 2.52173e-012
Gmin = 2.70769e-013
Gmin = 0
Gmin stepping succeeded in finding the operating point.


Date: Wed Feb 18 15:41:24 2015
Total elapsed time: 1.796 seconds.

tnom = 27
temp = 27
method = modified trap
totiter = 80486
traniter = 80012
tranpoints = 40007
accept = 24016
rejected = 15991
matrix size = 40
fillins = 26
solver = Normal
Matrix Compiler1: 3.35 KB object code size  1.4/0.8/[0.5]
Matrix Compiler2: 3.56 KB object code size  1.1/1.1/[0.8]


