Circuit: * Z:\home\mainster\CODES_local\LTSpice_projects\koblitz_EAS_klausuren\SS15_mult.asc

Warning: Multiple definitions of model "sub704" Type: BJT
Warning: Multiple definitions of model "sub605" Type: BJT
Warning: Multiple definitions of model "n3306d" Type: Diode
Warning: Multiple definitions of model "diode1" Type: Diode
WARNING: Less than two connections to node NC_01.  This node is used by R7.

Date: Sun Jan 31 01:33:10 2016
Total elapsed time: 0.044 seconds.

tnom = 27
temp = 27
method = trap
totiter = 222
traniter = 0
tranpoints = 0
accept = 0
rejected = 0
matrix size = 14
fillins = 0
solver = Normal
Matrix Compiler1: 518 bytes object code size  1.8/1.5/[1.4]
Matrix Compiler2: 950 bytes object code size  1.4/1.6/[1.4]


