Circuit: * Z:\home\mainster\CODES_local\LTSpice_projects\koblitz_EAS_klausuren\ws13_14_buck_fan.asc

Direct Newton iteration for .op point succeeded.
Heightened Def Con from 0.0012 to 0.0012
Heightened Def Con from 0.0013 to 0.0013
Heightened Def Con from 0.0015 to 0.0015
Heightened Def Con from 0.0019 to 0.0019
Heightened Def Con from 0.0023 to 0.0023
Heightened Def Con from 0.0027 to 0.0027
Heightened Def Con from 0.0028 to 0.0028
Heightened Def Con from 0.0031 to 0.0031
Heightened Def Con from 0.0032 to 0.0032
Heightened Def Con from 0.0034 to 0.0034
Heightened Def Con from 0.0035 to 0.0035
Heightened Def Con from 0.0036 to 0.0036
Heightened Def Con from 0.0039 to 0.0039
Heightened Def Con from 0.004 to 0.004
Heightened Def Con from 0.0044 to 0.0044
Heightened Def Con from 0.0045 to 0.0045
Heightened Def Con from 0.0053 to 0.0053
Heightened Def Con from 0.0054 to 0.0054
Heightened Def Con from 0.0055 to 0.0055
Heightened Def Con from 0.0056 to 0.0056
Heightened Def Con from 0.0058 to 0.0058
Heightened Def Con from 0.006 to 0.006
Heightened Def Con from 0.0062 to 0.0062
Heightened Def Con from 0.0063 to 0.0063
Heightened Def Con from 0.0064 to 0.0064
Heightened Def Con from 0.0065 to 0.0065
Heightened Def Con from 0.0069 to 0.0069
Heightened Def Con from 0.0077 to 0.0077
Heightened Def Con from 0.0078 to 0.0078
Heightened Def Con from 0.0079 to 0.0079
Heightened Def Con from 0.0086 to 0.0086
Heightened Def Con from 0.0087 to 0.0087
Heightened Def Con from 0.0091 to 0.0091
Heightened Def Con from 0.0094 to 0.0094
Heightened Def Con from 0.0101 to 0.0101
Heightened Def Con from 0.0102 to 0.0102
Heightened Def Con from 0.0103 to 0.0103
Heightened Def Con from 0.0104 to 0.0104
Heightened Def Con from 0.0105 to 0.0105
Heightened Def Con from 0.0106 to 0.0106
Heightened Def Con from 0.0109 to 0.0109
Heightened Def Con from 0.0111 to 0.0111
Heightened Def Con from 0.0112 to 0.0112
Heightened Def Con from 0.0113 to 0.0113
Heightened Def Con from 0.0116 to 0.0116
Heightened Def Con from 0.012 to 0.012
Heightened Def Con from 0.0122 to 0.0122
Heightened Def Con from 0.0126 to 0.0126
Heightened Def Con from 0.0127 to 0.0127
Heightened Def Con from 0.0128 to 0.0128
Heightened Def Con from 0.0129 to 0.0129
Heightened Def Con from 0.0131 to 0.0131
Heightened Def Con from 0.0133 to 0.0133
Heightened Def Con from 0.0135 to 0.0135
Heightened Def Con from 0.0137 to 0.0137
Heightened Def Con from 0.0141 to 0.0141
Heightened Def Con from 0.0142 to 0.0142
Heightened Def Con from 0.0144 to 0.0144
Heightened Def Con from 0.0148 to 0.0148
Heightened Def Con from 0.0149 to 0.0149
Heightened Def Con from 0.015 to 0.015
Heightened Def Con from 0.0154 to 0.0154
Heightened Def Con from 0.0155 to 0.0155
Heightened Def Con from 0.0156 to 0.0156
Heightened Def Con from 0.0158 to 0.0158
Heightened Def Con from 0.0159 to 0.0159
Heightened Def Con from 0.0161 to 0.0161
Heightened Def Con from 0.0163 to 0.0163
Heightened Def Con from 0.0164 to 0.0164
Heightened Def Con from 0.0165 to 0.0165
Heightened Def Con from 0.0167 to 0.0167
Heightened Def Con from 0.0168 to 0.0168
Heightened Def Con from 0.0169 to 0.0169
Heightened Def Con from 0.0171 to 0.0171
Heightened Def Con from 0.0172 to 0.0172
Heightened Def Con from 0.0173 to 0.0173
Heightened Def Con from 0.0174 to 0.0174
Heightened Def Con from 0.0175 to 0.0175
Heightened Def Con from 0.0176 to 0.0176
Heightened Def Con from 0.0177 to 0.0177
Heightened Def Con from 0.0178 to 0.0178
Heightened Def Con from 0.0181 to 0.0181
Heightened Def Con from 0.0182 to 0.0182
Heightened Def Con from 0.0183 to 0.0183
Heightened Def Con from 0.0184 to 0.0184
Heightened Def Con from 0.0185 to 0.0185
Heightened Def Con from 0.0186 to 0.0186
Heightened Def Con from 0.0187 to 0.0187
Heightened Def Con from 0.0188 to 0.0188
Heightened Def Con from 0.0189 to 0.0189
Heightened Def Con from 0.0191 to 0.0191
Heightened Def Con from 0.0192 to 0.0192
Heightened Def Con from 0.0194 to 0.0194
Heightened Def Con from 0.0195 to 0.0195
Heightened Def Con from 0.0196 to 0.0196
Heightened Def Con from 0.0197 to 0.0197
Heightened Def Con from 0.0198 to 0.0198
Heightened Def Con from 0.0199 to 0.0199
Heightened Def Con from 0.02 to 0.02
Heightened Def Con from 0.0203 to 0.0203
Heightened Def Con from 0.0206 to 0.0206
Heightened Def Con from 0.0207 to 0.0207
Heightened Def Con from 0.0208 to 0.0208
Heightened Def Con from 0.0209 to 0.0209
Heightened Def Con from 0.021 to 0.021
Heightened Def Con from 0.0211 to 0.0211
Heightened Def Con from 0.0213 to 0.0213
Heightened Def Con from 0.0214 to 0.0214
Heightened Def Con from 0.0215 to 0.0215
Heightened Def Con from 0.0216 to 0.0216
Heightened Def Con from 0.0217 to 0.0217
Heightened Def Con from 0.0218 to 0.0218
Heightened Def Con from 0.0219 to 0.0219
Heightened Def Con from 0.022 to 0.022
Heightened Def Con from 0.0221 to 0.0221
Heightened Def Con from 0.0222 to 0.0222
Heightened Def Con from 0.0223 to 0.0223
Heightened Def Con from 0.0224 to 0.0224
Heightened Def Con from 0.0226 to 0.0226
Heightened Def Con from 0.0227 to 0.0227
Heightened Def Con from 0.0229 to 0.0229
Heightened Def Con from 0.023 to 0.023
Heightened Def Con from 0.0231 to 0.0231
Heightened Def Con from 0.0232 to 0.0232
Heightened Def Con from 0.0233 to 0.0233
Heightened Def Con from 0.0235 to 0.0235
Heightened Def Con from 0.0236 to 0.0236
Heightened Def Con from 0.0237 to 0.0237
Heightened Def Con from 0.0238 to 0.0238
Heightened Def Con from 0.0239 to 0.0239
Heightened Def Con from 0.024 to 0.024
Heightened Def Con from 0.0241 to 0.0241
Heightened Def Con from 0.0242 to 0.0242
Heightened Def Con from 0.0243 to 0.0243
Heightened Def Con from 0.0245 to 0.0245
Heightened Def Con from 0.0246 to 0.0246
Heightened Def Con from 0.0247 to 0.0247
Heightened Def Con from 0.0249 to 0.0249
Heightened Def Con from 0.025 to 0.025
Heightened Def Con from 0.0251 to 0.0251
Heightened Def Con from 0.0252 to 0.0252
Heightened Def Con from 0.0254 to 0.0254
Heightened Def Con from 0.0257 to 0.0257
Heightened Def Con from 0.0258 to 0.0258
Heightened Def Con from 0.026 to 0.026
Heightened Def Con from 0.0261 to 0.0261
Heightened Def Con from 0.0262 to 0.0262
Heightened Def Con from 0.0263 to 0.0263
Heightened Def Con from 0.0266 to 0.0266
Heightened Def Con from 0.027 to 0.027
Heightened Def Con from 0.0271 to 0.0271
Heightened Def Con from 0.0272 to 0.0272
Heightened Def Con from 0.0274 to 0.0274
Heightened Def Con from 0.0277 to 0.0277
Heightened Def Con from 0.0279 to 0.0279
Heightened Def Con from 0.0281 to 0.0281
Heightened Def Con from 0.0283 to 0.0283
Heightened Def Con from 0.0285 to 0.0285
Heightened Def Con from 0.0286 to 0.0286
Heightened Def Con from 0.0287 to 0.0287
Heightened Def Con from 0.0288 to 0.0288
Heightened Def Con from 0.0289 to 0.0289
Heightened Def Con from 0.0294 to 0.0294
Heightened Def Con from 0.0295 to 0.0295
Heightened Def Con from 0.0296 to 0.0296
Heightened Def Con from 0.0298 to 0.0298
Heightened Def Con from 0.0299 to 0.0299
Heightened Def Con from 0.03 to 0.03
Heightened Def Con from 0.0301 to 0.0301
Heightened Def Con from 0.0302 to 0.0302
Heightened Def Con from 0.0303 to 0.0303
Heightened Def Con from 0.0304 to 0.0304
Heightened Def Con from 0.0305 to 0.0305
Heightened Def Con from 0.0306 to 0.0306
Heightened Def Con from 0.0308 to 0.0308
Heightened Def Con from 0.0309 to 0.0309
Heightened Def Con from 0.031 to 0.031
Heightened Def Con from 0.0311 to 0.0311
Heightened Def Con from 0.0312 to 0.0312
Heightened Def Con from 0.0314 to 0.0314
Heightened Def Con from 0.0315 to 0.0315
Heightened Def Con from 0.0316 to 0.0316
Heightened Def Con from 0.0317 to 0.0317
Heightened Def Con from 0.0318 to 0.0318
Heightened Def Con from 0.0319 to 0.0319
Heightened Def Con from 0.032 to 0.032
Heightened Def Con from 0.0321 to 0.0321
Heightened Def Con from 0.0322 to 0.0322
Heightened Def Con from 0.0323 to 0.0323
Heightened Def Con from 0.0325 to 0.0325
Heightened Def Con from 0.0326 to 0.0326
Heightened Def Con from 0.0327 to 0.0327
Heightened Def Con from 0.0328 to 0.0328
Heightened Def Con from 0.0329 to 0.0329
Heightened Def Con from 0.033 to 0.033
Heightened Def Con from 0.0331 to 0.0331
Heightened Def Con from 0.0333 to 0.0333
Heightened Def Con from 0.0334 to 0.0334
Heightened Def Con from 0.0336 to 0.0336
Heightened Def Con from 0.0337 to 0.0337
Heightened Def Con from 0.0339 to 0.0339
Heightened Def Con from 0.034 to 0.034
Heightened Def Con from 0.0341 to 0.0341
Heightened Def Con from 0.0342 to 0.0342
Heightened Def Con from 0.0343 to 0.0343
Heightened Def Con from 0.0344 to 0.0344
Heightened Def Con from 0.0345 to 0.0345
Heightened Def Con from 0.0346 to 0.0346
Heightened Def Con from 0.0347 to 0.0347
Heightened Def Con from 0.0348 to 0.0348
Heightened Def Con from 0.0349 to 0.0349
Heightened Def Con from 0.0352 to 0.0352
Heightened Def Con from 0.0353 to 0.0353
Heightened Def Con from 0.0354 to 0.0354
Heightened Def Con from 0.0355 to 0.0355
Heightened Def Con from 0.0356 to 0.0356
Heightened Def Con from 0.0358 to 0.0358
Heightened Def Con from 0.036 to 0.036
Heightened Def Con from 0.0361 to 0.0361
Heightened Def Con from 0.0362 to 0.0362
Heightened Def Con from 0.0363 to 0.0363
Heightened Def Con from 0.0365 to 0.0365
Heightened Def Con from 0.0366 to 0.0366
Heightened Def Con from 0.0367 to 0.0367
Heightened Def Con from 0.0368 to 0.0368
Heightened Def Con from 0.0369 to 0.0369
Heightened Def Con from 0.037 to 0.037
Heightened Def Con from 0.0371 to 0.0371
Heightened Def Con from 0.0372 to 0.0372
Heightened Def Con from 0.0374 to 0.0374
Heightened Def Con from 0.0375 to 0.0375
Heightened Def Con from 0.0376 to 0.0376
Heightened Def Con from 0.0378 to 0.0378
Heightened Def Con from 0.0379 to 0.0379
Heightened Def Con from 0.038 to 0.038
Heightened Def Con from 0.0381 to 0.0381
Heightened Def Con from 0.0382 to 0.0382
Heightened Def Con from 0.0383 to 0.0383
Heightened Def Con from 0.0384 to 0.0384
Heightened Def Con from 0.0385 to 0.0385
Heightened Def Con from 0.0387 to 0.0387
Heightened Def Con from 0.0388 to 0.0388
Heightened Def Con from 0.0389 to 0.0389
Heightened Def Con from 0.039 to 0.039
Heightened Def Con from 0.0391 to 0.0391
Heightened Def Con from 0.0392 to 0.0392
Heightened Def Con from 0.0394 to 0.0394
Heightened Def Con from 0.0395 to 0.0395
Heightened Def Con from 0.0397 to 0.0397
Heightened Def Con from 0.0398 to 0.0398
Heightened Def Con from 0.0399 to 0.0399
Heightened Def Con from 0.04 to 0.04
Heightened Def Con from 0.0402 to 0.0402
Heightened Def Con from 0.0404 to 0.0404
Heightened Def Con from 0.0405 to 0.0405
Heightened Def Con from 0.0406 to 0.0406
Heightened Def Con from 0.0409 to 0.0409
Heightened Def Con from 0.0411 to 0.0411
Heightened Def Con from 0.0412 to 0.0412
Heightened Def Con from 0.0413 to 0.0413
Heightened Def Con from 0.0414 to 0.0414
Heightened Def Con from 0.0416 to 0.0416
Heightened Def Con from 0.0418 to 0.0418
Heightened Def Con from 0.0419 to 0.0419
Heightened Def Con from 0.042 to 0.042
Heightened Def Con from 0.0421 to 0.0421
Heightened Def Con from 0.0422 to 0.0422
Heightened Def Con from 0.0423 to 0.0423
Heightened Def Con from 0.0424 to 0.0424
Heightened Def Con from 0.0425 to 0.0425
Heightened Def Con from 0.0426 to 0.0426
Heightened Def Con from 0.0427 to 0.0427
Heightened Def Con from 0.0429 to 0.0429
Heightened Def Con from 0.0431 to 0.0431
Heightened Def Con from 0.0432 to 0.0432
Heightened Def Con from 0.0433 to 0.0433
Heightened Def Con from 0.0434 to 0.0434
Heightened Def Con from 0.0437 to 0.0437
Heightened Def Con from 0.0438 to 0.0438
Heightened Def Con from 0.0439 to 0.0439
Heightened Def Con from 0.044 to 0.044
Heightened Def Con from 0.0442 to 0.0442
Heightened Def Con from 0.0443 to 0.0443
Heightened Def Con from 0.0444 to 0.0444
Heightened Def Con from 0.0445 to 0.0445
Heightened Def Con from 0.0446 to 0.0446
Heightened Def Con from 0.0447 to 0.0447
Heightened Def Con from 0.0448 to 0.0448
Heightened Def Con from 0.0449 to 0.0449
Heightened Def Con from 0.045 to 0.045
Heightened Def Con from 0.0451 to 0.0451
Heightened Def Con from 0.0452 to 0.0452
Heightened Def Con from 0.0453 to 0.0453
Heightened Def Con from 0.0456 to 0.0456
Heightened Def Con from 0.0457 to 0.0457
Heightened Def Con from 0.0458 to 0.0458
Heightened Def Con from 0.0459 to 0.0459
Heightened Def Con from 0.0462 to 0.0462
Heightened Def Con from 0.0463 to 0.0463
Heightened Def Con from 0.0465 to 0.0465
Heightened Def Con from 0.0466 to 0.0466
Heightened Def Con from 0.0468 to 0.0468
Heightened Def Con from 0.0469 to 0.0469
Heightened Def Con from 0.047 to 0.047
Heightened Def Con from 0.0474 to 0.0474
Heightened Def Con from 0.0475 to 0.0475
Heightened Def Con from 0.0476 to 0.0476
Heightened Def Con from 0.0478 to 0.0478
Heightened Def Con from 0.0479 to 0.0479
Heightened Def Con from 0.048 to 0.048
Heightened Def Con from 0.0481 to 0.0481
Heightened Def Con from 0.0482 to 0.0482
Heightened Def Con from 0.0483 to 0.0483
Heightened Def Con from 0.0484 to 0.0484
Heightened Def Con from 0.0486 to 0.0486
Heightened Def Con from 0.0487 to 0.0487
Heightened Def Con from 0.0489 to 0.0489
Heightened Def Con from 0.049 to 0.049
Heightened Def Con from 0.0492 to 0.0492
Heightened Def Con from 0.0493 to 0.0493
Heightened Def Con from 0.0494 to 0.0494
Heightened Def Con from 0.0495 to 0.0495
Heightened Def Con from 0.0496 to 0.0496
Heightened Def Con from 0.0497 to 0.0497
Heightened Def Con from 0.0499 to 0.0499

Date: Sat Dec 06 23:00:17 2014
Total elapsed time: 4.009 seconds.

tnom = 27
temp = 27
method = modified trap
totiter = 520247
traniter = 520241
tranpoints = 181658
accept = 138514
rejected = 43469
matrix size = 18
fillins = 1
solver = Normal
Matrix Compiler1: 566 bytes object code size  0.6/0.4/[0.3]
Matrix Compiler2: 1.12 KB object code size  0.3/0.4/[0.3]


