Circuit: * Z:\home\mainster\CODES_local\LTSpice_projects\galvoscanner\endstufe_FET_lochraster_nochmal_29-9-2014KOB.asc

WARNING: Less than two connections to node N003.  This node is used by R14.
WARNING: Less than two connections to node VCS.  This node is used by V8.
WARNING: Less than two connections to node NC_01.  This node is used by S1.
WARNING: Less than two connections to node GND1.  This node is used by V9.
WARNING: Less than two connections to node LAP.  This node is used by E1.
Direct Newton iteration failed to find .op point.  (Use ".option noopiter" to skip.)
Starting Gmin stepping
Gmin = 10
Gmin = 1.07374
Gmin = 0.115292
Gmin = 0.0123794
Gmin = 0.00132923
Gmin = 0.000142725
Gmin = 1.5325e-005
Gmin = 1.6455e-006
Gmin = 1.76685e-007
Gmin = 1.89714e-008
Gmin = 2.03704e-009
Gmin = 2.18725e-010
Gmin = 2.34854e-011
Gmin = 2.52173e-012
Gmin = 2.70769e-013
Gmin = 0
Gmin stepping succeeded in finding the operating point.


Date: Thu Mar 26 05:29:10 2015
Total elapsed time: 0.179 seconds.

tnom = 27
temp = 27
method = trap
totiter = 4489
traniter = 0
tranpoints = 0
accept = 0
rejected = 0
matrix size = 95
fillins = 63
solver = Normal
Matrix Compiler1:     431 opcodes  3.3/1.5/[1.0]
Matrix Compiler2: 8.32 KB object code size  1.9/2.1/[0.9]


