Stray ".ends" card: .ends
Circuit: * Z:\home\mainster\CODES_local\LTSpice_projects\galvoscanner\FET_stufe_LT1166_v6_26-04-2015.asc

M2: all pins shorted together -- ignoring.
WARNING: Less than two connections to node NC_01.  This node is used by M1.
Direct Newton iteration failed to find .op point.  (Use ".option noopiter" to skip.)
Starting Gmin stepping
Gmin = 10
vernier = 0.5
vernier = 0.25
Gmin = 2.91271
vernier = 0.125
vernier = 0.0625
vernier = 0.03125
vernier = 0.015625
Gmin = 2.80255
vernier = 0.0078125
vernier = 0.00390625
vernier = 0.00195313
vernier = 0.000976563
Gmin = 2.79641
vernier = 0.000488281
Gmin = 0
Gmin stepping failed

Starting source stepping with srcstepmethod=0
Source Step = 3.0303%
Source Step = 14.3939%
Source Step = 21.9697%
Source Step = 29.5455%
vernier = 0.0625
Source Step = 28.8086%
Source Step = 28.8382%
Source Step = 28.8678%
Source Step = 28.8974%
Source Step = 28.927%
vernier = 0.00146484
Source Step = 28.964%
Source Step = 29.0083%
Source Step = 29.0527%
Source Step = 29.0971%
Source Step = 29.1415%
vernier = 0.00219727
Source Step = 29.1948%
Source Step = 29.2614%
Source Step = 29.3279%
Source Step = 29.3945%
Source Step = 29.4611%
vernier = 0.0032959
Source Step = 29.5377%
Source Step = 29.6376%
Source Step = 29.7374%
Source Step = 29.8373%
Source Step = 29.9372%
vernier = 0.00494385
Source Step = 30.0471%
Source Step = 30.1969%
Source Step = 30.3467%
Source Step = 30.4965%
Source Step = 30.6463%
vernier = 0.00741577
Source Step = 30.8036%
Source Step = 31.0283%
Source Step = 31.2531%
Source Step = 31.4778%
Source Step = 31.7025%
Source Step = 31.9272%
vernier = 0.0111237
Source Step = 32.2643%
Source Step = 32.6014%
Source Step = 32.9385%
Source Step = 33.2755%
Source Step = 33.6126%
vernier = 0.0166855
Source Step = 34.1014%
Source Step = 34.607%
Source Step = 35.1126%
Source Step = 35.6182%
Source Step = 36.1239%
vernier = 0.0250282
Source Step = 36.8317%
Source Step = 37.5902%
Source Step = 38.3486%
Source Step = 39.107%
Source Step = 39.8655%
vernier = 0.0375423
Source Step = 40.8893%
Source Step = 42.027%
Source Step = 43.1646%
Source Step = 44.3023%
Source Step = 45.4399%
vernier = 0.0563135
Source Step = 46.9189%
Source Step = 48.6253%
Source Step = 50.3318%
Source Step = 52.0383%
Source Step = 53.7447%
vernier = 0.0844703
Source Step = 55.8778%
Source Step = 58.4375%
Source Step = 60.9972%
Source Step = 63.557%
Source Step = 66.1167%
vernier = 0.126705
Source Step = 69.1883%
Source Step = 73.0279%
Source Step = 76.8674%
Source Step = 80.707%
Source Step = 84.5465%
vernier = 0.190058
Source Step = 88.962%
Source Step = 90.1589%
Source Step = 90.2489%
Source Step = 90.3389%
Source Step = 90.4289%
Source Step = 90.5188%
Source Step = 90.6088%
Source Step = 90.6988%
Source Step = 90.7888%
Source Step = 90.8788%
Source Step = 90.9688%
Source Step = 91.0588%
Source Step = 91.1488%
Source Step = 91.2388%
Source Step = 91.3288%
Source Step = 91.4187%
Source Step = 91.5087%
Source Step = 91.5987%
Source Step = 91.6887%
Source Step = 91.7787%
Source Step = 91.8687%
Source Step = 91.9587%
Source Step = 92.0487%
Source Step = 92.1387%
Source Step = 92.2287%
Source Step = 92.3186%
Source Step = 92.4086%
Source Step = 92.4986%
Source Step = 92.5886%
Source Step = 92.6786%
Source Step = 92.7686%
Source Step = 92.8586%
Source Step = 92.9486%
Source Step = 93.0386%
Source Step = 93.1285%
Source Step = 93.2185%
Source Step = 93.3085%
Source Step = 93.3985%
Source Step = 93.4885%
Source Step = 93.5785%
Source Step = 93.6685%
Source Step = 93.7585%
Source Step = 93.8485%
Source Step = 93.9385%
Source Step = 94.0284%
Source Step = 94.1184%
Source Step = 94.2084%
Source Step = 94.2984%
Source Step = 94.3884%
Source Step = 94.4784%
Source Step = 94.5684%
Source Step = 94.6584%
Source Step = 94.7484%
Source Step = 94.8384%
Source Step = 94.9283%
Source Step = 95.0183%
Source Step = 95.1083%
Source Step = 95.1983%
Source Step = 95.2883%
Source Step = 95.3783%
Source Step = 95.4683%
vernier = 0.00445449
Source Step = 95.5808%
Source Step = 95.7157%
Source Step = 95.8507%
Source Step = 95.9857%
Source Step = 96.1207%
vernier = 0.00668173
Source Step = 96.2827%
Source Step = 96.4852%
Source Step = 96.6876%
Source Step = 96.8901%
Source Step = 97.0926%
vernier = 0.0100226
Source Step = 97.3254%
Source Step = 97.6292%
Source Step = 97.9329%
Source Step = 98.2366%
Source Step = 98.5403%
vernier = 0.0150339
Source Step = 98.8744%
Source Step = 99.33%
Source Step = 99.7855%
Source stepping succeeded in finding the operating point.


Date: Sun Apr 26 05:30:43 2015
Total elapsed time: 16.823 seconds.

tnom = 27
temp = 27
method = trap
totiter = 50633
traniter = 0
tranpoints = 0
accept = 0
rejected = 0
matrix size = 180
fillins = 628
solver = Normal
Matrix Compiler1:    4166 opcodes
Matrix Compiler2: 28.9 KB object code size  5.8/5.1/[2.8]


