Circuit: * Z:\home\mainster\CODES_local\LTSpice_projects\galvoscanner\FET_stufe_LT1166_v5_26-04-2015.asc

C4: Increased Cpar to 3e-016
C1: Increased Cpar to 3e-016
Early termination of direct N-R iteration.
Direct Newton iteration failed to find .op point.  (Use ".option noopiter" to skip.)
Starting Gmin stepping
Gmin = 10
Gmin = 1.07374
Gmin = 0.115292
Gmin = 0.0123794
Gmin = 0.00132923
Gmin = 0.000142725
Gmin = 1.5325e-005
vernier = 0.5
Gmin = 2.85678e-006
vernier = 0.25
vernier = 0.333333
Gmin = 1.7232e-006
vernier = 0.444444
vernier = 0.592592
Gmin = 5.91931e-007
vernier = 0.790123
vernier = 0.395061
vernier = 0.197531
vernier = 0.0987653
Gmin = 2.37523e-007
vernier = 0.0493827
vernier = 0.0246913
vernier = 0.0123457
vernier = 0.00617283
vernier = 0.00308642
vernier = 0.00154321
vernier = 0.000771604
vernier = 0.000578703
vernier = 0.000434027
Gmin = 0
Gmin = 0
Gmin stepping failed

Starting source stepping with srcstepmethod=0
Source Step = 3.0303%
Source Step = 9.32765%
Source Step = 9.80114%
Source Step = 10.2746%
Source Step = 10.7481%
Source Step = 11.2216%
vernier = 0.0234375
Source Step = 11.7898%
Source Step = 12.5%
Source Step = 13.2102%
Source Step = 13.9205%
Source Step = 14.6307%
vernier = 0.0351563
Source Step = 15.4474%
Source Step = 16.5128%
Source Step = 17.5781%
Source Step = 18.6435%
Source Step = 19.7088%
vernier = 0.0527344
Source Step = 20.8807%
Source Step = 22.4787%
Source Step = 24.0767%
Source Step = 25.6747%
Source Step = 27.2727%
vernier = 0.0791016
Source Step = 28.9506%
Source Step = 31.3477%
Source Step = 33.7447%
Source Step = 36.1417%
Source Step = 38.5387%
Source Step = 40.9357%
vernier = 0.118652
Source Step = 44.5312%
Source Step = 46.3402%
Source Step = 46.3964%
Source Step = 46.4526%
Source Step = 46.5088%
Source Step = 46.565%
Source Step = 46.6211%
vernier = 0.00278091
Source Step = 46.7026%
Source Step = 46.7869%
Source Step = 46.8712%
Source Step = 46.9554%
Source Step = 47.0397%
vernier = 0.00417137
Source Step = 47.1577%
Source Step = 47.2841%
Source Step = 47.4105%
Source Step = 47.5369%
Source Step = 47.6633%
vernier = 0.00625706
Source Step = 47.8339%
Source Step = 48.0235%
Source Step = 48.2132%
Source Step = 48.4028%
Source Step = 48.5924%
vernier = 0.00938559
Source Step = 48.8389%
Source Step = 49.1233%
Source Step = 49.4077%
Source Step = 49.6921%
Source Step = 49.9765%
vernier = 0.0140784
Source Step = 50.332%
Source Step = 50.7586%
Source Step = 51.1853%
Source Step = 51.6119%
Source Step = 52.0385%
vernier = 0.0211176
Source Step = 52.5504%
Source Step = 53.1904%
Source Step = 53.8303%
Source Step = 54.4702%
Source Step = 55.1101%
vernier = 0.0316764
Source Step = 55.8461%
Source Step = 56.8059%
Source Step = 57.7658%
Source Step = 58.7257%
Source Step = 59.6856%
vernier = 0.0475145
Source Step = 60.7415%
Source Step = 62.1813%
Source Step = 63.6212%
Source Step = 65.061%
Source Step = 66.5008%
vernier = 0.0712718
Source Step = 68.0127%
Source Step = 70.1724%
Source Step = 72.3322%
Source Step = 74.4919%
Source Step = 76.6517%
Source Step = 78.8114%
vernier = 0.106908
Source Step = 82.051%
Source Step = 85.2907%
Source Step = 88.5303%
Source Step = 90.4791%
Source Step = 90.5297%
Source Step = 90.5804%
Source Step = 90.631%
Source Step = 90.6816%
Source Step = 90.7322%
Source Step = 90.7828%
Source Step = 90.8335%
Source Step = 90.8841%
Source Step = 90.9347%
Source Step = 90.9853%
Source Step = 91.0359%
Source Step = 91.0866%
Source Step = 91.1372%
Source Step = 91.1878%
Source Step = 91.2384%
Source Step = 91.289%
Source Step = 91.3397%
Source Step = 91.3903%
Source Step = 91.4409%
Source Step = 91.4915%
Source Step = 91.5421%
Source Step = 91.5927%
Source Step = 91.6434%
Source Step = 91.694%
Source Step = 91.7446%
Source Step = 91.7952%
Source Step = 91.8458%
Source Step = 91.8965%
Source Step = 91.9471%
Source Step = 91.9977%
Source Step = 92.0483%
Source Step = 92.0989%
Source Step = 92.1496%
Source Step = 92.2002%
Source Step = 92.2508%
Source Step = 92.3014%
Source Step = 92.352%
Source Step = 92.4027%
Source Step = 92.4533%
Source Step = 92.5039%
Source Step = 92.5545%
Source Step = 92.6051%
Source Step = 92.6557%
Source Step = 92.7064%
Source Step = 92.757%
Source Step = 92.8076%
Source Step = 92.8582%
Source Step = 92.9088%
Source stepping aborted.
Starting source stepping with srcstepmethod=1
Source Step = 3.0303%
Source Step = 33.3333%
Source Step = 63.6364%
Source Step = 93.9394%
Source Step = 99.0089%
Source Step = 99.0385%
Source Step = 99.0681%
Source Step = 99.0977%
Source Step = 99.1272%
Source Step = 99.1568%
Source Step = 99.1864%
Source Step = 99.216%
Source Step = 99.2456%
Source Step = 99.2752%
Source Step = 99.3048%
Source Step = 99.3344%
Source stepping aborted.
Pseudo Transient failed in finding the operating point.
Fatal Error: Failed to find DC finding operating point for AC analysis.
