Stray ".ends" card: .ends
Circuit: * Z:\home\mainster\CODES_local\LTSpice_projects\galvoscanner\PositionDemodulator_CamTech_01-04-2015_N.asc

C1: both pins shorted together -- ignoring.
C3: both pins shorted together -- ignoring.
WARNING: Less than two connections to node AGC_OUT.  This node is used by R19.
WARNING: Less than two connections to node VIA_CW.  This node is used by V10.
WARNING: Less than two connections to node VIB_CW.  This node is used by V11.
WARNING: Less than two connections to node VIA_CCW.  This node is used by V12.
WARNING: Less than two connections to node VIB_CCW.  This node is used by V13.
Direct Newton iteration failed to find .op point.  (Use ".option noopiter" to skip.)
Starting Gmin stepping
Gmin = 10
Gmin = 1.07374
Gmin = 0.115292
Gmin = 0.0123794
Gmin = 0.00132923
Gmin = 0.000142725
Gmin = 1.5325e-005
Gmin = 1.6455e-006
Gmin = 1.76685e-007
Gmin = 1.89714e-008
Gmin = 2.03704e-009
Gmin = 2.18725e-010
Gmin = 2.34854e-011
Gmin = 2.52173e-012
Gmin = 2.70769e-013
Gmin = 0
Gmin stepping succeeded in finding the operating point.


Date: Thu May 07 08:39:23 2015
Total elapsed time: 4.461 seconds.

tnom = 27
temp = 27
method = modified trap
totiter = 86948
traniter = 86548
tranpoints = 43275
accept = 33107
rejected = 10168
matrix size = 70
fillins = 51
solver = Normal
Thread vector: 50.5/28.4[5] 16.4/8.8[5] 5.8/5.2[2] 0.8/1.4[1]  2592/500
Matrix Compiler1: 5.43 KB object code size  3.4/2.2/[1.1]
Matrix Compiler2: 6.93 KB object code size  2.8/3.6/[1.2]


