Circuit: * Z:\home\mainster\CODES_local\LTSpice_projects\galvoscanner\PositionDemodulator_CamTech.asc

R24: both pins shorted together -- ignoring.
C11: both pins shorted together -- ignoring.
Laplace(E1): Window=20ms Nfft=32768
WARNING: Less than two connections to node LAP1.  This node is used by E1.
WARNING: Less than two connections to node N008.  This node is used by V8.
Direct Newton iteration failed to find .op point.  (Use ".option noopiter" to skip.)
Starting Gmin stepping
Gmin = 10
Gmin = 1.07374
Gmin = 0.115292
Gmin = 0.0123794
Gmin = 0.00132923
Gmin = 0.000142725
Gmin = 1.5325e-005
Gmin = 1.6455e-006
Gmin = 1.76685e-007
Gmin = 1.89714e-008
Gmin = 2.03704e-009
Gmin = 2.18725e-010
Gmin = 2.34854e-011
Gmin = 2.52173e-012
Gmin = 2.70769e-013
Gmin = 0
Gmin stepping succeeded in finding the operating point.

.step cp1=3.3e-010
.step cp1=1e-030

Date: Tue Mar 31 06:10:03 2015
Total elapsed time: 12.189 seconds.

tnom = 27
temp = 27
method = modified trap
totiter = 33193
traniter = 32808
tranpoints = 16405
accept = 16405
rejected = 0
matrix size = 64
fillins = 44
solver = Normal
Thread vector: 60.0/46.7[5] 18.7/14.3[5] 6.0/5.9[1] 0.7/2.0[1]  2592/500
Matrix Compiler1: 4.80 KB object code size  2.7/1.6/[1.0]
Matrix Compiler2: 6.54 KB object code size  7.0/2.7/[1.3]


