Circuit: * Z:\home\mainster\CODES_local\LTSpice_projects\galvoscanner\position_demo.asc

Direct Newton iteration for .op point succeeded.

Date: Mon Mar 30 11:25:16 2015
Total elapsed time: 0.118 seconds.

tnom = 27
temp = 27
method = trap
totiter = 3
traniter = 0
tranpoints = 0
accept = 0
rejected = 0
matrix size = 32
fillins = 14
solver = Normal
Matrix Compiler1:     100 opcodes
Matrix Compiler2: 2.68 KB object code size

