Circuit: * Z:\home\mainster\CODES_local\LTSpice_projects\galvoscanner\PositionDemodulator_CamTech_x4_01-04-2015.asc

WARNING: Less than two connections to node AGC_OUT.  This node is used by R19.
WARNING: Less than two connections to node VIA_CENTER.  This node is used by V9.
WARNING: Less than two connections to node VIB_CENTER.  This node is used by V8.
WARNING: Less than two connections to node VIA_CW.  This node is used by V10.
WARNING: Less than two connections to node VIB_CW.  This node is used by V11.
WARNING: Less than two connections to node VIA_CCW.  This node is used by V12.
WARNING: Less than two connections to node VIB_CCW.  This node is used by V13.
Direct Newton iteration failed to find .op point.  (Use ".option noopiter" to skip.)
Starting Gmin stepping
Gmin = 10
Gmin = 1.07374
Gmin = 0.115292
Gmin = 0.0123794
Gmin = 0.00132923
Gmin = 0.000142725
Gmin = 1.5325e-005
Gmin = 1.6455e-006
Gmin = 1.76685e-007
Gmin = 1.89714e-008
Gmin = 2.03704e-009
Gmin = 2.18725e-010
Gmin = 2.34854e-011
Gmin = 2.52173e-012
Gmin = 2.70769e-013
Gmin = 0
Gmin stepping succeeded in finding the operating point.


Date: Wed Apr 01 15:48:47 2015
Total elapsed time: 0.383 seconds.

tnom = 27
temp = 27
method = trap
totiter = 374
traniter = 0
tranpoints = 0
accept = 0
rejected = 0
matrix size = 71
fillins = 56
solver = Normal
Matrix Compiler1:     338 opcodes
Matrix Compiler2: off  [1.2]/3.7/5.6


