Circuit: * C:\Program Files (x86)\LTC_ALL\LTspiceIV_4.18_multiLibs\examples\LTspiceWorldTour2009\vco_v2f\1055.asc

Direct Newton iteration failed to find .op point.  (Use ".option noopiter" to skip.)
Starting Gmin stepping
Gmin = 10
Gmin = 1.07374
Gmin = 0.115292
Gmin = 0.0123794
Gmin = 0.00132923
Gmin = 0.000142725
Gmin = 1.5325e-005
Gmin = 1.6455e-006
Gmin = 1.76685e-007
Gmin = 1.89714e-008
Gmin = 2.03704e-009
Gmin = 2.18725e-010
Gmin = 2.34854e-011
Gmin = 2.52173e-012
Gmin = 2.70769e-013
Gmin = 0
Gmin stepping succeeded in finding the operating point.


Date: Mon Feb 09 11:59:46 2015
Total elapsed time: 3.291 seconds.

tnom = 27
temp = 27
method = modified trap
totiter = 207775
traniter = 207359
tranpoints = 60306
accept = 43878
rejected = 16428
matrix size = 31
fillins = 20
solver = Normal
Matrix Compiler1: 2.54 KB object code size  1.1/0.7/[0.4]
Matrix Compiler2: 3.03 KB object code size  1.1/1.1/[0.7]


