Circuit: * Z:\media\data\CODES\LTspiceWorkspace\LTspice_projects\HF_technik_EMV\CAN_FILT.asc


Date: Mon May 22 13:42:34 2017
Total elapsed time: 0.032 seconds.

tnom = 27
temp = 27
method = trap
totiter = 0
traniter = 0
tranpoints = 0
accept = 0
rejected = 0
matrix size = 27
fillins = 27
solver = Alternate

