Circuit: * Z:\media\data\CODES\LTspiceWorkspace\LTspice_projects\HF_technik_EMV\dotNet_command.asc


Date: Mon May 29 19:30:03 2017
Total elapsed time: 0.064 seconds.

tnom = 27
temp = 27
method = trap
totiter = 0
traniter = 0
tranpoints = 0
accept = 0
rejected = 0
matrix size = 3
fillins = 1
solver = Alternate

