Circuit: * Z:\media\data\CODES\LTspiceWorkspace\LTspice_projects\HF_technik_EMV\labor_stripline.asc


Date: Mon May 29 19:20:20 2017
Total elapsed time: 0.030 seconds.

tnom = 27
temp = 27
method = trap
totiter = 0
traniter = 0
tranpoints = 0
accept = 0
rejected = 0
matrix size = 9
fillins = 0
solver = Alternate

