Circuit: * Z:\home\mainster\CODES_local\LTSpice_projects\HF_technik\nr.asc

Direct Newton iteration for .op point succeeded.

Date: Thu Nov 12 23:25:09 2015
Total elapsed time: 2.063 seconds.

tnom = 27
temp = 27
method = trap
totiter = 3
traniter = 0
tranpoints = 0
accept = 0
rejected = 0
matrix size = 1
fillins = 0
solver = Normal
Matrix Compiler1: off
Matrix Compiler2: 43 bytes object code size

