Circuit: * Z:\media\data\CODES\LTspiceWorkspace\LTspice_projects\EMV\reactanceMatchingNetwork,asc.asc


Date: Mon May 22 11:07:46 2017
Total elapsed time: 0.041 seconds.

tnom = 27
temp = 27
method = trap
totiter = 0
traniter = 0
tranpoints = 0
accept = 0
rejected = 0
matrix size = 9
fillins = 0
solver = Alternate

