Circuit: * Z:\home\mainster\CODES_local\LTSpice_projects\HF_technik\reflexion.asc

ltrax: using linear interpolation because trytocompact option specified

Date: Fri Nov 13 06:42:06 2015
Total elapsed time: 0.148 seconds.

tnom = 27
temp = 27
method = trap
totiter = 0
traniter = 0
tranpoints = 0
accept = 0
rejected = 0
matrix size = 13
fillins = 4
solver = Normal

