Circuit: * Z:\home\mainster\CODES_local\LTSpice_projects\HF_technik\stichleitung_TUT.asc

WARNING: Less than two connections to node NC_01 of instance R4:  Node and device optimized out.
WARNING: Less than two connections to node NC_02 of instance R8:  Node and device optimized out.
WARNING: Less than two connections to node NC_03 of instance R10:  Node and device optimized out.
WARNING: Less than two connections to node NC_04 of instance R13:  Node and device optimized out.

Date: Mon Jan 05 19:46:07 2015
Total elapsed time: 0.029 seconds.

tnom = 27
temp = 27
method = trap
totiter = 0
traniter = 0
tranpoints = 0
accept = 0
rejected = 0
matrix size = 22
fillins = 14
solver = Normal

