Circuit: * Z:\home\mainster\CODES_local\LTSpice_projects\schaltregler\Draft5.asc

