Circuit: * F:\CODES\LTspiceWorkspace\LTspice_projects\power_path_controller\LTC4417_TA01A.asc

WARNING: Specified period is not longer than the sum of Trise, Tfall, and Ton for v3.  Increasing period to 60.001
WARNING: Specified period is not longer than the sum of Trise, Tfall, and Ton for v2.  Increasing period to 21
Direct Newton iteration for .op point succeeded.

Date: Fri Apr  3 23:47:39 2020
Total elapsed time: 5.093 seconds.

tnom = 27
temp = 27
method = modified trap
totiter = 29600
traniter = 29563
tranpoints = 7670
accept = 6019
rejected = 1651
matrix size = 180
fillins = 37
solver = Normal
Thread vector: 73.6/26.0[8] 31.1/12.2[8] 15.2/8.0[8] 2.4/2.9[1]  2592/500
Matrix Compiler1: 9.59 KB object code size  10.8/4.5/[2.7]
Matrix Compiler2: 12.64 KB object code size  4.0/8.3/[3.0]

