Circuit: * C:\users\mainster\My Documents\CODES_local\LTSpice_projects\StochastikKlausurenStockle\RCL.asc

WARNING: Less than two connections to node L.  This node is used by E1.

Date: Thu May 14 02:51:09 2015
Total elapsed time: 0.012 seconds.

tnom = 27
temp = 27
method = trap
totiter = 0
traniter = 0
tranpoints = 0
accept = 0
rejected = 0
matrix size = 6
fillins = 0
solver = Normal

