Circuit: * Z:\home\mainster\CODES_local\LTSpice_projects\schaltwandler_vergleich\Draft2233.asc

WARNING: Less than two connections to node U4:CTRLM.  This node is used by R:U4:11.
Direct Newton iteration for .op point succeeded.

Date: Wed Jul 29 02:59:13 2015
Total elapsed time: 1.809 seconds.

tnom = 27
temp = 27
method = modified trap
totiter = 563952
traniter = 563949
tranpoints = 209408
accept = 166922
rejected = 42486
matrix size = 5
fillins = 0
solver = Normal
Matrix Compiler1: 150 bytes object code size  0.2/0.2/[0.2]
Matrix Compiler2: 315 bytes object code size  0.2/0.2/[0.2]


