Circuit: * Z:\home\mainster\CODES_local\LTSpice_projects\schaltwandler_vergleich\schaltwandler_buck_vergl.asc

WARNING: Less than two connections to node U2:CTRLM.  This node is used by R:U2:11.
Direct Newton iteration for .op point succeeded.
Heightened Def Con from 0.002136 to 0.002136

Date: Wed Jul 29 04:40:52 2015
Total elapsed time: 5.501 seconds.

tnom = 27
temp = 27
method = modified trap
totiter = 1498812
traniter = 1498798
tranpoints = 504320
accept = 338635
rejected = 165686
matrix size = 10
fillins = 0
solver = Normal
Matrix Compiler1: 292 bytes object code size  0.3/0.3/[0.2]
Matrix Compiler2: off  [0.3]/0.3/0.3


