Circuit: * C:\Program Files (x86)\LTC_ALL\LTspiceIV_4.18_multiLibs\examples\LTspiceWorldTour2009\Misc\1256_AM_ ModulatorWithDcOutputNullingCircuit\1256.asc

Direct Newton iteration for .op point succeeded.

Date: Mon Feb 09 11:55:42 2015
Total elapsed time: 1.294 seconds.

tnom = 27
temp = 27
method = modified trap
totiter = 53149
traniter = 53122
tranpoints = 19705
accept = 13312
rejected = 6393
matrix size = 58
fillins = 66
solver = Normal
Thread vector: 20.8/12.0[2] 5.3/3.9[2] 4.0/3.1[2] 0.6/1.2[1]  2592/500
Matrix Compiler1: 4.24 KB object code size  2.1/1.2/[0.6]
Matrix Compiler2: 5.28 KB object code size  1.5/1.6/[0.8]


