Circuit: * C:\Program Files (x86)\LTC_ALL\LTspiceIV_4.18_multiLibs\examples\LtSpicePlus\Gen\Bit_stream\bit_stream.asc

V4: Removing PWL point (2.995e-007,0)
V4: Removing PWL point (4.995e-007,1)
WARNING: Less than two connections to node V1.  This node is used by V1.
WARNING: Less than two connections to node BPWL.  This node is used by V2.
WARNING: Less than two connections to node BPWLF.  This node is used by V4.
WARNING: Less than two connections to node BTABLE.  This node is used by B1.
WARNING: Less than two connections to node BITTABLE.  This node is used by B2.
.OP point found by inspection.

Date: Mon Feb 09 11:38:33 2015
Total elapsed time: 0.031 seconds.

tnom = 27
temp = 27
method = modified trap
totiter = 3296
traniter = 3296
tranpoints = 1632
accept = 1358
rejected = 274
matrix size = 12
fillins = 0
solver = Normal
Matrix Compiler1: 158 bytes object code size  0.3/0.3/[0.3]
Matrix Compiler2: 492 bytes object code size  0.3/0.4/[0.3]


