Circuit: * C:\Program Files (x86)\LTC_ALL\LTspiceIV_4.18_multiLibs\examples\LtSpicePlus\Digital\64Bit Shift Register w DVIEW\shiftreg64[1].asc

WARNING: Less than two connections to node D[64].  This node is used by A[63].
Direct Newton iteration for .op point succeeded.

Date: Mon Feb 09 11:29:57 2015
Total elapsed time: 0.680 seconds.

tnom = 27
temp = 27
method = modified trap
totiter = 27021
traniter = 27018
tranpoints = 13510
accept = 10762
rejected = 2748
matrix size = 68
fillins = 0
solver = Normal
Thread vector: 8.6/4.3[5] 2.3/2.6[1] 1.4/2.0[1] 0.3/1.9[1]  2592/500
Matrix Compiler1: 978 bytes object code size  0.7/0.5/[0.3]
Matrix Compiler2: 2.62 KB object code size  0.7/1.0/[0.3]


