Circuit: * Z:\home\mainster\CODES_local\LTSpice_projects\RPES\ksq_rgb_trans_test\ccs_rgb_trans_test.asc

Warning: Multiple definitions of model "pxt4401" Type: BJT
R20: both pins shorted together -- ignoring.
WARNING: Less than two connections to node C2.  This node is used by Q4.
WARNING: Less than two connections to node RIUV.  This node is used by V4.
Direct Newton iteration failed to find .op point.  (Use ".option noopiter" to skip.)
Starting Gmin stepping
Gmin = 10
Gmin = 1.07374
vernier = 0.5
vernier = 0.25
vernier = 0.125
Gmin = 1.02385
vernier = 0.0625
vernier = 0.03125
vernier = 0.015625
Gmin = 1.02347
vernier = 0.0078125
vernier = 0.00390625
Gmin = 1.01452
vernier = 0.00520833
vernier = 0.00260417
vernier = 0.00130208
Gmin = 1.00991
vernier = 0.00173611
vernier = 0.000868055
Gmin = 1.00761
vernier = 0.00115741
vernier = 0.000578703
Gmin = 1.00601
vernier = 0.000771604
vernier = 0.000578703
Gmin = 1.00475
vernier = 0.000771604
vernier = 0.000578703
vernier = 0.000434027
vernier = 0.000578703
Gmin = 1.00406
vernier = 0.000434027
Gmin = 0
Gmin stepping failed

Starting source stepping with srcstepmethod=0
Source Step = 3.0303%
Source Step = 33.3333%
Source Step = 63.6364%
Source Step = 93.9394%
Source Step = 93.9542%
Source Step = 93.9838%
Source Step = 94.0134%
Source Step = 94.043%
Source Step = 94.0726%
vernier = 0.00146484
Source Step = 94.1066%
Source Step = 94.151%
Source Step = 94.1954%
Source Step = 94.2398%
Source Step = 94.2842%
vernier = 0.00219727
Source Step = 94.333%
Source Step = 94.3996%
Source Step = 94.4661%
Source Step = 94.5327%
Source Step = 94.5993%
vernier = 0.0032959
Source Step = 94.6692%
Source Step = 94.7691%
Source Step = 94.869%
Source Step = 94.9689%
Source Step = 95.0687%
Source Step = 95.1686%
vernier = 0.00494385
Source Step = 95.3184%
Source Step = 95.4682%
Source Step = 95.618%
Source Step = 95.7679%
Source Step = 95.9177%
vernier = 0.00741577
Source Step = 96.1349%
Source Step = 96.3596%
Source Step = 96.5843%
Source Step = 96.8091%
Source Step = 97.0338%
vernier = 0.0111237
Source Step = 97.3484%
Source Step = 97.6855%
Source Step = 98.0226%
Source Step = 98.3596%
Source Step = 98.6967%
vernier = 0.0166855
Source Step = 99.1518%
Source Step = 99.6574%
Source stepping succeeded in finding the operating point.


Date: Mon Jan 12 13:38:55 2015
Total elapsed time: 4.666 seconds.

tnom = 27
temp = 27
method = modified trap
totiter = 13449
traniter = 5046
tranpoints = 2524
accept = 2165
rejected = 359
matrix size = 329
fillins = 343
solver = Normal
Thread vector: 52.1/34.1[4] 15.7/11.7[3] 9.3/6.3[4] 1.8/2.5[1]  2592/500
Matrix Compiler1: 37.0 KB object code size  14.8/5.2/[4.2]
Matrix Compiler2: 31.2 KB object code size  8.2/10.6/[4.5]


