Circuit: * Z:\home\mainster\CODES_local\LTSpice_projects\BuckBoostInv_swconverter\buckBoostInv.asc

Direct Newton iteration for .op point succeeded.

Date: Sat Jan 30 12:47:20 2016
Total elapsed time: 2.772 seconds.

tnom = 27
temp = 27
method = modified trap
totiter = 449415
traniter = 449405
tranpoints = 151244
accept = 112567
rejected = 38677
matrix size = 15
fillins = 0
solver = Normal
Matrix Compiler1: 416 bytes object code size  0.8/0.6/[0.6]
Matrix Compiler2: 893 bytes object code size  0.6/0.7/[0.6]


