Questionable use of curly braces in ".model sw vswitch {roff=1tron=1mvon=0.7voff=0.3vh=-0.5}"
    Error: undefined symbol in: "[roff]=1tron=1mvon=0.7voff=0.3vh=-0.5"
Questionable use of curly braces in ".model dx d {ron=1mroff=1tvfwd=0.4}"
    Error: undefined symbol in: "[ron]=1mroff=1tvfwd=0.4"
Circuit: * Z:\home\mainster\CODES_local\LTSpice_projects\BuckBoostInv_swconverter\buck_labor_ft_geregelt.asc

Warning: Multiple definitions of model "sub704" Type: BJT
Warning: Multiple definitions of model "sub605" Type: BJT
Warning: Multiple definitions of model "n3306d" Type: Diode
Warning: Multiple definitions of model "diode1" Type: Diode
Laplace(E2): Window=16.2987ms Nfft=4096
WARNING: Less than two connections to node AS.  This node is used by E2.
Direct Newton iteration failed to find .op point.  (Use ".option noopiter" to skip.)
Starting Gmin stepping
Gmin = 10
Gmin = 1.07374
Gmin = 0.115292
Gmin = 0.0123794
Gmin = 0.00132923
Gmin = 0.000142725
Gmin = 1.5325e-005
Gmin = 1.6455e-006
Gmin = 1.76685e-007
Gmin = 1.89714e-008
Gmin = 2.03704e-009
vernier = 0.5
Gmin = 3.41758e-010
vernier = 0.25
vernier = 0.125
vernier = 0.0625
vernier = 0.03125
vernier = 0.015625
vernier = 0.0078125
vernier = 0.00390625
vernier = 0.00195313
vernier = 0.000976563
vernier = 0.000488281
Gmin = 3.41758e-010
Gmin = 0
Gmin stepping failed

Starting source stepping with srcstepmethod=0
Source Step = 3.0303%
vernier = 0.25
Source Step = 0.0177557%
Starting source stepping with srcstepmethod=1
Source Step = 3.0303%
vernier = 0.25
Source stepping failed

Pseudo Transient succeeded in finding the operating point.
Ignoring empty pin current: Ix(u1:1)
Ignoring empty pin current: Ix(u1:2)
Ignoring empty pin current: Ix(u1:1)
Ignoring empty pin current: Ix(u1:2)

Date: Sat Jan 30 12:46:04 2016
Total elapsed time: 0.960 seconds.

tnom = 27
temp = 27
method = modified trap
totiter = 26990
traniter = 12540
tranpoints = 5962
accept = 5603
rejected = 1213
matrix size = 38
fillins = 30
solver = Normal
Matrix Compiler1: 3,22 KB object code size  1.4/0.8/[0.7]
Matrix Compiler2: off  [1.4]/1.8/1.9


