Stray ".ends" card: .ends
Stray ".ends" card: .ends
Stray ".ends" card: .ends
Circuit: * Z:\home\koblitz\Simulationsbeispiele_WS14\Elektronik_Lab\dienstag\beta-kennlininie3.asc

.step temp=0°C
.step temp=50°C
.step temp=100°C

Date: Tue Oct 28 15:57:50 2014
Total elapsed time: 0.078 seconds.

tnom = 27
temp = 100
method = trap
totiter = 256
traniter = 0
tranpoints = 0
accept = 0
rejected = 0
matrix size = 6
fillins = 0
solver = Normal
Matrix Compiler1:      16 opcodes  1.6/[1.4]/1.5
Matrix Compiler2: 414 Bytes object code size  1.6/1.5/[1.5]


