Circuit: * Z:\home\koblitz\Simulationsbeispiele_WS14\Elektronik_Lab\dienstag\hochpass_tran.asc


Date: Thu Oct 09 10:25:31 2014
Total elapsed time: 0.042 seconds.

tnom = 27
temp = 27
method = trap
totiter = 0
traniter = 0
tranpoints = 0
accept = 0
rejected = 0
matrix size = 3
fillins = 0
solver = Normal

