Circuit: * Z:\home\koblitz\Simulationsbeispiele_WS14\Elektronik_Lab\dienstag\T1-2.asc

Direct Newton iteration for .op point succeeded.
.step var=0
.step var=1

Date: Tue Dec 02 16:11:34 2014
Total elapsed time: 0.106 seconds.

tnom = 27
temp = 27
method = trap
totiter = 7
traniter = 0
tranpoints = 0
accept = 0
rejected = 0
matrix size = 12
fillins = 0
solver = Normal
Matrix Compiler1:      39 opcodes
Matrix Compiler2: 920 Bytes object code size

