Circuit: * Z:\home\mainster\CODES_local\LTSpice_projects\galvoscanner\aktuell\analog_compensator_PD2_elm_v2.asc

WARNING: Less than two connections to node NC_01.  This node is used by V3.
Early termination of direct N-R iteration.
Direct Newton iteration failed to find .op point.  (Use ".option noopiter" to skip.)
Starting Gmin stepping
Gmin = 10
vernier = 0.5
Gmin = 2.07126
vernier = 0.25
vernier = 0.125
vernier = 0.0625
vernier = 0.03125
Gmin = 2.11016
vernier = 0.015625
vernier = 0.0078125
vernier = 0.00390625
vernier = 0.00195313
Gmin = 2.11527
vernier = 0.000976563
vernier = 0.000488281
Gmin = 0
Gmin stepping failed

Starting source stepping with srcstepmethod=0
Source Step = 3.0303%
Source Step = 33.3333%
Source Step = 63.6364%
Source Step = 93.9394%
Source stepping succeeded in finding the operating point.

Heightened Def Con from 6.81141e-005 to 6.81141e-005
Heightened Def Con from 6.81141e-005 to 6.81141e-005
Heightened Def Con from 6.81141e-005 to 6.81141e-005
Heightened Def Con from 6.81141e-005 to 6.81141e-005
Heightened Def Con from 6.81141e-005 to 6.81141e-005
Heightened Def Con from 6.81141e-005 to 6.81141e-005
Heightened Def Con from 6.81141e-005 to 6.81142e-005
Heightened Def Con from 6.81142e-005 to 6.81142e-005
Heightened Def Con from 6.81142e-005 to 6.81142e-005
Heightened Def Con from 6.81142e-005 +to 6.81143e-005
Heightened Def Con from 6.81143e-005 +to 6.81143e-005
Heightened Def Con from 6.81143e-005 +to 6.81143e-005
Heightened Def Con from 6.81143e-005 +to 6.81143e-005
Heightened Def Con from 6.81143e-005 +to 6.81143e-005
Heightened Def Con from 8.73753e-005 to 8.73753e-005
Heightened Def Con from 8.73753e-005 to 8.73753e-005
Heightened Def Con from 8.73753e-005 to 8.73753e-005
Heightened Def Con from 8.73753e-005 to 8.73753e-005
Heightened Def Con from 8.73753e-005 to 8.73753e-005
Heightened Def Con from 8.73753e-005 to 8.73755e-005
Heightened Def Con from 0.000106715 to 0.000106715
Heightened Def Con from 0.000106715 to 0.000106715
Heightened Def Con from 0.000106715 to 0.000106715
Heightened Def Con from 0.000106715 to 0.000106715
Heightened Def Con from 0.000126592 to 0.000126592
Heightened Def Con from 0.000126592 to 0.000126592
Heightened Def Con from 0.000126592 to 0.000126592
Heightened Def Con from 0.000126592 to 0.000126592
Heightened Def Con from 0.000126592 to 0.000126592
Heightened Def Con from 0.000126592 to 0.000126592
Heightened Def Con from 0.000126592 to 0.000126592
Heightened Def Con from 0.00014613 to 0.00014613
Heightened Def Con from 0.00014613 to 0.00014613
Heightened Def Con from 0.00014613 to 0.00014613
Heightened Def Con from 0.000165889 to 0.000165889
Heightened Def Con from 0.000165889 to 0.000165889
Heightened Def Con from 0.000165889 to 0.000165889
Heightened Def Con from 0.000165889 to 0.000165889
Heightened Def Con from 0.000165889 to 0.000165889
Heightened Def Con from 0.000165889 to 0.000165889
Heightened Def Con from 0.000165889 to 0.000165889
Heightened Def Con from 0.000165889 to 0.000165889
Heightened Def Con from 0.000165889 +to 0.000165889
Heightened Def Con from 0.000165889 +to 0.000165889
Heightened Def Con from 0.000165889 +to 0.000165889
Heightened Def Con from 0.000165889 ++to 0.000165889
Heightened Def Con from 0.000165889 ++to 0.000165889
Heightened Def Con from 0.000165889 ++to 0.000165889
Heightened Def Con from 0.000165889 ++to 0.000165889
Heightened Def Con from 0.000165889 to 0.000165891
Heightened Def Con from 0.000185559 to 0.000185559
Heightened Def Con from 0.000185559 to 0.000185559
Heightened Def Con from 0.000185559 to 0.000185559
Heightened Def Con from 0.000185559 to 0.000185559
Heightened Def Con from 0.000185559 to 0.000185559
Heightened Def Con from 0.000185559 to 0.000185559
Heightened Def Con from 0.000185559 to 0.00018556
Heightened Def Con from 0.000201728 to 0.000201728

Date: Sat Apr 25 12:44:46 2015
Total elapsed time: 19.749 seconds.

tnom = 27
temp = 27
method = modified trap
totiter = 21584
traniter = 19932
tranpoints = 3692
accept = 2073
rejected = 1693
matrix size = 327
fillins = 8005
solver = Normal
Thread vector: 95.1/58.3[5] 20.3/14.7[3] 24.9/9.4[7] 6.2/5.5[2]  2592/500
Matrix Compiler1: 2.99 MB object code size  914.2/728.5/[458.7]
Matrix Compiler2: 159 KB object code size  30.6/24.7/[10.1]


