Circuit: * Z:\home\mainster\CODES_local\LTSpice_projects\galvoscanner\aktuell\endstufe_LM3886_Audio_Power_Amplifier.asc

WARNING: Less than two connections to node V2+.  This node is used by V:U4:1.
WARNING: Less than two connections to node V2-.  This node is used by V:U5:1.
WARNING: Less than two connections to node CALCSUM.  This node is used by B1.
WARNING: Less than two connections to node STIMPWL.  This node is used by V2.
WARNING: Less than two connections to node NC_03.  This node is used by D:U1:7.
Direct Newton iteration for .op point skipped.
Starting Gmin stepping
Gmin = 10
Gmin = 1.07374
Gmin = 0.115292
Gmin = 0.0123794
Gmin = 0.00132923
Gmin = 0.000142725
vernier = 0.5
vernier = 0.666667
Gmin = 4.3448e-005
vernier = 0.888888
vernier = 0.444444
vernier = 0.222222
Gmin = 1.6447e-005
vernier = 0.111111
vernier = 0.0555555
vernier = 0.0277778
Gmin = 1.48487e-005
vernier = 0.037037
vernier = 0.0493827
Gmin = 1.35208e-005
vernier = 0.0658435
Gmin = 1.1672e-005
vernier = 0.0877914
vernier = 0.117055
Gmin = 9.12989e-006
vernier = 0.156073
vernier = 0.208098
Gmin = 6.18901e-006
vernier = 0.277464
Gmin = 3.37878e-006
vernier = 0.369952
vernier = 0.493269
Gmin = 1.2481e-006
vernier = 0.657691
vernier = 0.876922
Gmin = 2.66937e-007
vernier = 1
Gmin = 3.1667e-008
vernier = 0.5
vernier = 0.25
vernier = 0.125
vernier = 0.0625
vernier = 0.03125
Gmin = 3.66484e-008
vernier = 0.015625
vernier = 0.0078125
vernier = 0.00390625
vernier = 0.00195313
vernier = 0.000976563
vernier = 0.000488281
Gmin = 0
Gmin stepping failed

Starting source stepping with srcstepmethod=0
Source Step = 3.0303%
Source Step = 18.9394%
Source Step = 24.6212%
Source Step = 26.5152%
Source Step = 28.4091%
Source Step = 30.303%
Source Step = 32.197%
vernier = 0.09375
Source Step = 34.1856%
Source Step = 37.0265%
Source Step = 39.8674%
Source Step = 42.7083%
Source Step = 45.5492%
Source Step = 48.3902%
vernier = 0.140625
Source Step = 52.6515%
Source Step = 56.9129%
Source Step = 61.1742%
Source Step = 65.4356%
Source Step = 69.697%
vernier = 0.210938
Source Step = 75.8759%
Source Step = 82.268%
Source Step = 88.66%
Source Step = 95.0521%
Source stepping succeeded in finding the operating point.

.fourier quantity "I(l1)" not pressent in data.


Date: Thu Apr 23 07:59:01 2015
Total elapsed time: 0.869 seconds.

tnom = 27
temp = 27
method = modified trap
totiter = 7821
traniter = 3612
tranpoints = 1798
accept = 1414
rejected = 384
matrix size = 92
fillins = 76
solver = Normal
Thread vector: 31.6/21.4[2] 9.0/6.3[2] 7.7/6.3[2] 0.9/2.0[1]  2592/500
Matrix Compiler1: 9.42 KB object code size  4.3/2.6/[1.2]
Matrix Compiler2: 9.23 KB object code size  3.1/3.0/[1.5]


