Stray ".ends" card: .ends
Circuit: * Z:\home\mainster\CODES_local\LTSpice_projects\galvoscanner\aktuell\endstufe_BJT_MJ1101xG_ada4700_sum_disc_preamp.asc

WARNING: Less than two connections to node I_CMD.  This node is used by R24.
WARNING: Less than two connections to node N044.  This node is used by R25.
WARNING: Less than two connections to node ISENSA.  This node is used by R61.
Early termination of direct N-R iteration.
Direct Newton iteration failed to find .op point.  (Use ".option noopiter" to skip.)
Starting Gmin stepping
Gmin = 10
vernier = 0.5
vernier = 0.25
vernier = 0.125
vernier = 0.0625
Gmin = 8.61953
vernier = 0.03125
vernier = 0.015625
vernier = 0.0078125
vernier = 0.00390625
Gmin = 8.56925
vernier = 0.00195313
vernier = 0.000976563
vernier = 0.000488281
Gmin = 0
Gmin stepping failed

Starting source stepping with srcstepmethod=0
Source Step = 3.0303%
Source Step = 33.3333%
Source Step = 63.6364%
Source Step = 93.9394%
Source stepping succeeded in finding the operating point.


slewhi: D(i(rshunt))=-182002 at 2.66226e-005

Measurement "slewlo" FAIL'ed

Measurement "trise" FAIL'ed

Measurement "tfall" FAIL'ed


Date: Mon Jun 01 18:48:32 2015
Total elapsed time: 7.374 seconds.

tnom = 27
temp = 27
method = modified trap
totiter = 12749
traniter = 11069
tranpoints = 3877
accept = 3104
rejected = 773
matrix size = 633
fillins = 1111
solver = Normal
Thread vector: 210.7/81.2[7] 57.2/24.2[7] 30.1/13.8[7] 6.2/1249.4[1]  2592/500
Matrix Compiler1: 84.9 KB object code size  53.8/28.0/[13.2]
Matrix Compiler2: 78.8 KB object code size  27.0/29.7/[10.8]


