Circuit: * Z:\home\mainster\CODES_local\LTSpice_projects\galvoscanner\aktuell\lead_lag_glied.asc

Direct Newton iteration for .op point skipped.
Starting Gmin stepping
Gmin = 10
Gmin = 1.07374
Gmin = 0.115292
Gmin = 0.0123794
Gmin = 0.00132923
Gmin = 0.000142725
Gmin = 1.5325e-005
Gmin = 1.6455e-006
Gmin = 1.76685e-007
Gmin = 1.89714e-008
Gmin = 2.03704e-009
Gmin = 2.18725e-010
Gmin = 2.34854e-011
Gmin = 2.52173e-012
Gmin = 2.70769e-013
Gmin = 0
Gmin stepping succeeded in finding the operating point.

.step clag=4e-010
.step clag=6e-010
.step clag=8e-010
.step clag=1e-009

Date: Fri May 15 04:26:30 2015
Total elapsed time: 0.202 seconds.

tnom = 27
temp = 27
method = trap
totiter = 300
traniter = 0
tranpoints = 0
accept = 0
rejected = 0
matrix size = 40
fillins = 13
solver = Normal
Matrix Compiler1:     113 opcodes
Matrix Compiler2: off  [0.7]/1.0/1.7


