Circuit: * Z:\home\mainster\CODES_local\LTSpice_projects\galvoscanner\aktuell\levelconv_Vref_für_LTC6360.asc

u1:d18: both pins shorted together -- ignoring.
WARNING: Less than two connections to node CRF.  This node is used by V:U6:1.
WARNING: Less than two connections to node CRB.  This node is used by V:U7:1.
WARNING: Less than two connections to node CRG.  This node is used by V:U8:1.
Direct Newton iteration failed to find .op point.  (Use ".option noopiter" to skip.)
Starting Gmin stepping
Gmin = 10
Gmin = 1.07374
Gmin = 0.115292
Gmin = 0.0123794
Gmin = 0.00132923
Gmin = 0.000142725
Gmin = 1.5325e-005
Gmin = 1.6455e-006
Gmin = 1.76685e-007
Gmin = 1.89714e-008
vernier = 0.5
Gmin = 4.36608e-009
vernier = 0.666667
vernier = 0.333333
vernier = 0.444444
Gmin = 2.08074e-009
vernier = 0.592592
Gmin = 6.15802e-010
vernier = 0.790123
vernier = 1
Gmin = 9.31094e-011
Gmin = 9.99755e-012
Gmin = 1.07348e-012
Gmin = 1.15264e-013
Gmin = 0
Gmin stepping succeeded in finding the operating point.


Date: Fri Feb 27 02:15:05 2015
Total elapsed time: 0.130 seconds.

tnom = 27
temp = 27
method = modified trap
totiter = 2916
traniter = 2082
tranpoints = 1042
accept = 1042
rejected = 0
matrix size = 41
fillins = 17
solver = Normal
Thread vector: 13.5/9.3[3] 5.4/3.2[3] 1.3/1.4[1] 0.5/1.5[1]  2592/500
Matrix Compiler1: 3.00 KB object code size  1.4/0.8/[0.4]
Matrix Compiler2: 3.66 KB object code size  1.4/2.4/[0.7]


