Circuit: * Z:\home\mainster\CODES_local\LTSpice_projects\galvoscanner\aktuell\levelconv_transducer_digital_offset_v1.6.asc

u8:d18: both pins shorted together -- ignoring.
WARNING: Less than two connections to node INP_VCALC.  This node is used by B1.
WARNING: Less than two connections to node CRF.  This node is used by V:U9:1.
WARNING: Less than two connections to node CRB.  This node is used by V:U15:1.
WARNING: Less than two connections to node CRG.  This node is used by V:U16:1.
WARNING: Less than two connections to node N015.  This node is used by V:U17:1.
Direct Newton iteration failed to find .op point.  (Use ".option noopiter" to skip.)
Starting Gmin stepping
Gmin = 10
vernier = 0.5
vernier = 0.25
vernier = 0.125
Gmin = 4.81882
vernier = 0.0625
vernier = 0.03125
vernier = 0.015625
vernier = 0.0078125
Gmin = 4.73544
vernier = 0.00390625
vernier = 0.00195313
vernier = 0.000976563
vernier = 0.000488281
Gmin = 4.73428
Gmin = 0
Gmin stepping failed

Starting source stepping with srcstepmethod=0
Source Step = 3.0303%
vernier = 0.25
Source Step = 0.0177557%
Starting source stepping with srcstepmethod=1
Source Step = 3.0303%
vernier = 0.25
Source stepping failed

Pseudo Transient succeeded in finding the operating point.

Date: Mon Mar 30 02:37:54 2015
Total elapsed time: 4.057 seconds.

tnom = 27
temp = 27
method = modified trap
totiter = 26526
traniter = 2248
tranpoints = 1125
accept = 1083
rejected = 3770
matrix size = 142
fillins = 174
solver = Normal
Thread vector: 86.0/31.4[7] 15.4/7.6[7] 13.0/5.8[7] 1.3/4.3[1]  2592/500
Matrix Compiler1: 13.4 KB object code size  6.2/3.4/[2.2]
Matrix Compiler2: 15.7 KB object code size  7.5/7.0/[2.9]


