Circuit: * Z:\home\mainster\CODES_local\LTSpice_projects\galvoscanner\aktuell\LM3886_v6.asc

C9: Increased Cpar to 2.7e-016
Laplace(E4): Window=11.0756ms Nfft=16384
Laplace(E3): Window=11.0807ms Nfft=16384
Laplace(E2): Window=5.66961ms Nfft=16384
Laplace(E1): Window=5.66961ms Nfft=16384
WARNING: Less than two connections to node IN2A.  This node is used by V5.
WARNING: Less than two connections to node OUT_LRU_S.  This node is used by E1.
WARNING: Less than two connections to node OUT_LRI_S.  This node is used by E2.
WARNING: Less than two connections to node OUT_RCU_S.  This node is used by E3.
WARNING: Less than two connections to node OUT_RCI_S.  This node is used by E4.
Direct Newton iteration failed to find .op point.  (Use ".option noopiter" to skip.)
Starting Gmin stepping
Gmin = 10
Gmin = 1.07374
Gmin = 0.115292
Gmin = 0.0123794
Gmin = 0.00132923
Gmin = 0.000142725
Gmin = 1.5325e-005
Gmin = 1.6455e-006
Gmin = 1.76685e-007
Gmin = 1.89714e-008
Gmin = 2.03704e-009
Gmin = 2.18725e-010
Gmin = 2.34854e-011
Gmin = 2.52173e-012
Gmin = 2.70769e-013
Gmin = 0
Gmin stepping succeeded in finding the operating point.

Heightened Def Con from 0.0155081 to 0.0155081
Heightened Def Con from 0.0155081 ++++++++++++++++++++++++++++++++++++++to 0.0155081
Heightened Def Con from 0.0155081 ++++++++++++++++++++++++++++++++to 0.0155081
Heightened Def Con from 0.0155081 ++++++++++++++++++++++++++++to 0.0155081
Heightened Def Con from 0.0155081 ++++++++++++++++++++++++++to 0.0155081
Heightened Def Con from 0.0155081 +++++++++++++++++++++++++to 0.0155081
Heightened Def Con from 0.0155081 ++++++++++++++++++++++++to 0.0155081
Heightened Def Con from 0.0155081 ++++++++++++++++++++++to 0.0155081
Heightened Def Con from 0.0155081 ++++++++++++++++++++to 0.0155081
Heightened Def Con from 0.0155081 ++++++++++to 0.0155081
Heightened Def Con from 0.0155085 ++++++++++++++++++++++++++++++++++++++++++++++++++Fatal Error: Analysis:  Time step too small; time = 0.0155085, timestep = 1.25037e-017: trouble with node "u2:n012"

