Circuit: * Z:\home\mainster\CODES_local\LTSpice_projects\galvoscanner\aktuell\LM3886_power_op_v3.asc

WARNING: Less than two connections to node SUM-.  This node is used by R26.
WARNING: Less than two connections to node N003.  This node is used by R19.
WARNING: Less than two connections to node NC_01.  This node is used by E3.
Direct Newton iteration for .op point succeeded.
.step kf=1
Heightened Def Con from 0.00200024 to 0.00200024
Heightened Def Con from 0.00200024 to 0.00200024
Heightened Def Con from 0.00200024 to 0.00200024
Heightened Def Con from 0.00200024 to 0.00200024
Heightened Def Con from 0.00200024 to 0.00200025
.step kf=10
.step kf=100

Date: Sat Apr 25 14:54:25 2015
Total elapsed time: 0.408 seconds.

tnom = 27
temp = 27
method = modified trap
totiter = 2928
traniter = 2897
tranpoints = 1163
accept = 1101
rejected = 67
matrix size = 56
fillins = 103
solver = Normal
Matrix Compiler1: 10.3 KB object code size  3.7/2.2/[1.0]
Matrix Compiler2: 6.14 KB object code size  1.7/1.7/[1.0]


