Circuit: * Z:\home\mainster\CODES_local\LTSpice_projects\galvoscanner\aktuell\LTC6360_F12_+-10V_to_5V.asc

u1:d18: both pins shorted together -- ignoring.
Direct Newton iteration failed to find .op point.  (Use ".option noopiter" to skip.)
Starting Gmin stepping
Gmin = 10
Gmin = 1.07374
Gmin = 0.115292
Gmin = 0.0123794
Gmin = 0.00132923
vernier = 0.5
vernier = 0.666667
Gmin = 0.000464512
vernier = 0.888888
vernier = 1
Gmin = 7.02013e-005
Gmin = 7.53781e-006
Gmin = 8.09366e-007
Gmin = 8.6905e-008
Gmin = 9.33136e-009
Gmin = 1.00195e-009
Gmin = 1.07583e-010
Gmin = 1.15517e-011
Gmin = 1.24035e-012
Gmin = 1.33182e-013
Gmin = 0
Gmin stepping succeeded in finding the operating point.


Date: Thu Feb 26 18:55:01 2015
Total elapsed time: 0.096 seconds.

tnom = 27
temp = 27
method = modified trap
totiter = 2696
traniter = 2094
tranpoints = 1048
accept = 1047
rejected = 1
matrix size = 23
fillins = 13
solver = Normal
Thread vector: 22.9/16.6[2] 4.9/3.7[2] 2.3/2.5[1] 0.6/2.0[1]  2592/500
Matrix Compiler1: 2.38 KB object code size  1.0/0.6/[0.4]
Matrix Compiler2: 2.42 KB object code size  1.5/1.7/[1.2]


