Circuit: * Z:\home\mainster\CODES_local\LTSpice_projects\galvoscanner\aktuell\matlab_val_RC_LR.asc

WARNING: Less than two connections to node OUT_LRU_S.  This node is used by E1.
WARNING: Less than two connections to node OUT_LRI_S.  This node is used by E2.
WARNING: Less than two connections to node OUT_RCU_S.  This node is used by E3.
WARNING: Less than two connections to node OUT_RCI_S.  This node is used by E4.
WARNING: Less than two connections to node IN2A.  This node is used by A1.
WARNING: Less than two connections to node N002.  This node is used by B1.
Direct Newton iteration for .op point succeeded.

Date: Tue Apr 28 07:22:20 2015
Total elapsed time: 0.024 seconds.

tnom = 27
temp = 27
method = trap
totiter = 3
traniter = 0
tranpoints = 0
accept = 0
rejected = 0
matrix size = 18
fillins = 0
solver = Normal
Matrix Compiler1:      27 opcodes
Matrix Compiler2: 892 bytes object code size

