Circuit: * C:\users\mainster\My Documents\CODES_local\LTSpice_projects\galvoscanner\aktuell\supply_6xOut.asc

Direct Newton iteration failed to find .op point.  (Use ".option noopiter" to skip.)
Starting Gmin stepping
Gmin = 10
Gmin = 1.07374
Gmin = 0.115292
Gmin = 0.0123794
Gmin = 0.00132923
Gmin = 0.000142725
Gmin = 1.5325e-005
Gmin = 1.6455e-006
Gmin = 1.76685e-007
Gmin = 1.89714e-008
Gmin = 2.03704e-009
Gmin = 2.18725e-010
Gmin = 2.34854e-011
Gmin = 2.52173e-012
Gmin = 2.70769e-013
Gmin = 0
Gmin stepping succeeded in finding the operating point.

Heightened Def Con from 0.005 ++++to 0.005

Date: Fri Mar 13 05:35:19 2015
Total elapsed time: 0.939 seconds.

tnom = 27
temp = 27
method = modified trap
totiter = 5691
traniter = 5250
tranpoints = 2004
accept = 1736
rejected = 273
matrix size = 152
fillins = 268
solver = Normal
Thread vector: 129.2/38.6[7] 37.4/11.9[7] 25.8/7.9[7] 2.2/2.5[1]  2592/500
Matrix Compiler1: 37.3 KB object code size  13.0/7.2/[4.4]
Matrix Compiler2: 19.9 KB object code size  5.2/5.7/[3.8]


