Circuit: * Z:\home\mainster\CODES_local\LTSpice_projects\galvoscanner\aktuell\transducer_v1.6_feedbackCapac.asc

WARNING: Less than two connections to node CRB.  This node is used by V:U4:1.
WARNING: Less than two connections to node CRG.  This node is used by V:U5:1.
Direct Newton iteration for .op point succeeded.

Date: Fri Feb 27 12:58:54 2015
Total elapsed time: 0.159 seconds.

tnom = 27
temp = 27
method = trap
totiter = 6
traniter = 0
tranpoints = 0
accept = 0
rejected = 0
matrix size = 18
fillins = 3
solver = Normal
Matrix Compiler1:      37 opcodes
Matrix Compiler2: 1.25 KB object code size

