Stray ".ends" card: .ends
Circuit: * C:\Program Files (x86)\LTC_ALL\LTspiceIV_4.18_multiLibs\examples\jigs\1166.asc

.OP point found by inspection.

Date: Sun Apr 26 05:23:16 2015
Total elapsed time: 0.322 seconds.

tnom = 27
temp = 27
method = modified trap
totiter = 4106
traniter = 4106
tranpoints = 1334
accept = 1254
rejected = 80
matrix size = 140
fillins = 256
solver = Normal
Thread vector: 43.4/20.2[4] 17.9/7.7[4] 11.1/5.1[4] 1.4/2.0[1]  2592/500
Matrix Compiler1: 39.3 KB object code size  12.1/7.4/[3.8]
Matrix Compiler2: 19.6 KB object code size  4.3/3.6/[3.1]


