Circuit: * Z:\home\koblitz\Simulationsbeispiele_SS15\Elektronik_lab\mittwoch\clamp.asc

Per .tran options, skipping operating point for transient analysis.
.step cx=1e-008
.step cx=2.2e-008
.step cx=3.3e-008

Date: Wed Apr 15 14:36:27 2015
Total elapsed time: 1.357 seconds.

tnom = 27
temp = 27
method = modified trap
totiter = 59972
traniter = 59972
tranpoints = 29987
accept = 24504
rejected = 5483
matrix size = 7
fillins = 0
solver = Normal
Matrix Compiler1: 106 Bytes object code size  2.0/1.8/[1.8]
Matrix Compiler2: off  [1.8]/2.0/2.0


