Circuit: * Z:\home\koblitz\Simulationsbeispiele_SS15\Elektronik_lab\mittwoch\diff-unsymm.asc

.step k=0.6
.step k=0.8
.step k=1
.step k=1.2
.step k=1.4

Date: Wed Apr 15 15:32:32 2015
Total elapsed time: 0.219 seconds.

tnom = 27
temp = 27
method = trap
totiter = 415
traniter = 0
tranpoints = 0
accept = 0
rejected = 0
matrix size = 11
fillins = 0
solver = Normal
Matrix Compiler1: off  1.5/[1.5]/1.9
Matrix Compiler2: 813 Bytes object code size  1.7/1.9/[1.6]


