Stray ".ends" card: .ends
Stray ".ends" card: .ends
Stray ".ends" card: .ends
Circuit: * Z:\home\koblitz\Simulationsbeispiele_SS15\Elektronik_lab\mittwoch\diff_a1-dc-jump.asc


Date: Wed Apr 29 14:18:30 2015
Total elapsed time: 0.052 seconds.

tnom = 27
temp = 27
method = trap
totiter = 417
traniter = 0
tranpoints = 0
accept = 0
rejected = 0
matrix size = 13
fillins = 0
solver = Normal
Matrix Compiler1: 754 Bytes object code size  1.7/1.8/[1.7]
Matrix Compiler2: off  [1.6]/2.0/1.8


