Stray ".ends" card: .ends
Stray ".ends" card: .ends
Stray ".ends" card: .ends
Circuit: * Z:\home\koblitz\Simulationsbeispiele_SS15\Elektronik_lab\mittwoch\diff_a1-transfer.asc


Date: Wed Apr 29 14:05:49 2015
Total elapsed time: 0.211 seconds.

tnom = 27
temp = 27
method = trap
totiter = 2207
traniter = 0
tranpoints = 0
accept = 0
rejected = 0
matrix size = 18
fillins = 2
solver = Normal
Matrix Compiler1: 1,02 KB object code size  2.9/2.7/[2.0]
Matrix Compiler2: 1,41 KB object code size  2.2/2.9/[2.3]


