Circuit: * Z:\home\koblitz\Simulationsbeispiele_SS15\Elektronik_lab\mittwoch\diff_a3-sat-parpnp.asc

.step vplus=5
.step vplus=6
.step vplus=7
.step vplus=8
.step vplus=9
.step vplus=10

Date: Wed Apr 29 14:54:55 2015
Total elapsed time: 0.415 seconds.

tnom = 27
temp = 27
method = trap
totiter = 416
traniter = 0
tranpoints = 0
accept = 0
rejected = 0
matrix size = 15
fillins = 0
solver = Normal
Matrix Compiler1: 952 Bytes object code size  2.1/2.0/[1.5]
Matrix Compiler2: 1,25 KB object code size  1.9/2.0/[1.6]


