Circuit: * Z:\home\koblitz\Simulationsbeispiele_SS15\Elektronik_lab\mittwoch\diff_a3-sat.asc

.step pos=6
.step pos=7
.step pos=8
.step pos=9
.step pos=10

Date: Wed Apr 29 14:34:56 2015
Total elapsed time: 0.178 seconds.

tnom = 27
temp = 27
method = trap
totiter = 417
traniter = 0
tranpoints = 0
accept = 0
rejected = 0
matrix size = 13
fillins = 0
solver = Normal
Matrix Compiler1: 674 Bytes object code size  1.8/1.6/[1.6]
Matrix Compiler2: 993 Bytes object code size  1.6/1.8/[1.6]


