Stray ".ends" card: .ends
Stray ".ends" card: .ends
Stray ".ends" card: .ends
Circuit: * Z:\home\koblitz\Simulationsbeispiele_SS15\Elektronik_lab\mittwoch\diff_a2-315.asc

.step re=0.01
.step re=330

Date: Wed Apr 29 14:20:28 2015
Total elapsed time: 0.104 seconds.

tnom = 27
temp = 27
method = trap
totiter = 610
traniter = 0
tranpoints = 0
accept = 0
rejected = 0
matrix size = 13
fillins = 0
solver = Normal
Matrix Compiler1: 674 Bytes object code size  1.7/1.9/[1.4]
Matrix Compiler2: 993 Bytes object code size  1.6/1.8/[1.7]


