Circuit: * Z:\home\koblitz\Simulationsbeispiele_SS15\Elektronik_lab\mittwoch\diff_a4-mult.asc

Direct Newton iteration for .op point succeeded.
.step i1=0.0001
.step i1=0.0002
.step i1=0.0004
.step i1=0.0006
.step i1=0.0008
.step i1=0.001

Date: Wed Apr 29 15:04:14 2015
Total elapsed time: 0.514 seconds.

tnom = 27
temp = 27
method = modified trap
totiter = 2090
traniter = 2082
tranpoints = 1042
accept = 1042
rejected = 0
matrix size = 13
fillins = 0
solver = Normal
Matrix Compiler1: 674 Bytes object code size  1.7/1.9/[1.5]
Matrix Compiler2: off  [1.6]/1.8/2.1


