Circuit: * Z:\home\koblitz\Simulationsbeispiele_SS15\Elektronik_lab\mittwoch\fft-1.asc

WARNING: Less than two connections to node N002.  This node is used by V2.
.OP point found by inspection.
Fourier components of V(out)
DC component:-0.00797009

Harmonic	Frequency	 Fourier 	Normalized	 Phase  	Normalized
 Number 	  [Hz]   	Component	 Component	[degree]	Phase [deg]
    1   	9.300e+02	4.851e-01	1.000e+00	   -0.00°	    0.00°
    2   	1.860e+03	1.210e-02	2.493e-02	   90.01°	   90.01°
    3   	2.790e+03	8.456e-03	1.743e-02	    0.01°	    0.01°
    4   	3.720e+03	4.966e-03	1.024e-02	  -89.99°	  -89.99°
    5   	4.650e+03	2.305e-03	4.752e-03	 -180.00°	 -180.00°
    6   	5.580e+03	6.842e-04	1.410e-03	   89.99°	   89.99°
    7   	6.510e+03	6.000e-05	1.237e-04	 -179.77°	 -179.77°
    8   	7.440e+03	2.520e-04	5.196e-04	   90.04°	   90.04°
    9   	8.370e+03	1.957e-04	4.034e-04	    0.02°	    0.02°
Total Harmonic Distortion: 3.248636%



Date: Wed Jun 03 14:50:57 2015
Total elapsed time: 4.503 seconds.

tnom = 27
temp = 27
method = modified trap
totiter = 800012
traniter = 800012
tranpoints = 400007
accept = 240011
rejected = 159996
matrix size = 6
fillins = 0
solver = Normal
Matrix Compiler1: 128 Bytes object code size  1.7/1.4/[1.3]
Matrix Compiler2: 326 Bytes object code size  1.4/1.6/[1.4]


