Circuit: * Z:\home\koblitz\Simulationsbeispiele_SS15\Elektronik_lab\mittwoch\nichtlineares-beta.asc

.step temp=0°C
.step temp=25°C
.step temp=50°C
.step temp=75°C
.step temp=100°C
.step temp=125°C

Date: Wed Apr 15 15:00:13 2015
Total elapsed time: 0.171 seconds.

tnom = 27
temp = 125
method = trap
totiter = 93
traniter = 0
tranpoints = 0
accept = 0
rejected = 0
matrix size = 6
fillins = 0
solver = Normal
Matrix Compiler1: off
Matrix Compiler2: 414 Bytes object code size

