Circuit: * Z:\home\koblitz\Simulationsbeispiele_SS15\Elektronik_lab\mittwoch\rlc.asc

WARNING: Less than two connections to node NC_01.  This node is used by V1.
Per .tran options, skipping operating point for transient analysis.

Date: Wed Apr 15 15:15:40 2015
Total elapsed time: 0.256 seconds.

tnom = 27
temp = 27
method = modified trap
totiter = 25594
traniter = 25594
tranpoints = 12798
accept = 9042
rejected = 3756
matrix size = 3
fillins = 0
solver = Normal
Matrix Compiler1: off  [1.6]/1.7/1.7
Matrix Compiler2: off  [1.6]/1.8/1.8


