Stray ".ends" card: .ends
Stray ".ends" card: .ends
Stray ".ends" card: .ends
Circuit: * Z:\home\koblitz\Simulationsbeispiele_SS15\Elektronik_lab\mittwoch\T1-a2.asc

Direct Newton iteration for .op point succeeded.
.step c2=1e-009
.step c2=1e-008
.step c2=1e-007
.step c2=1e-006
.step c2=1e-005
.step c2=0.0001
.step c2=0.001

Date: Wed May 13 15:05:00 2015
Total elapsed time: 0.175 seconds.

tnom = 27
temp = 27
method = trap
totiter = 7
traniter = 0
tranpoints = 0
accept = 0
rejected = 0
matrix size = 12
fillins = 0
solver = Normal
Matrix Compiler1:      39 opcodes
Matrix Compiler2: 920 Bytes object code size

