Circuit: * C:\Program Files (x86)\LTC_ALL\LTspiceIV_4.18_multiLibs\examples\Robertugo\Chaos&Noise\2Q_HfNoiseGen.asc

