Circuit: * Z:\home\koblitz\Simulationsbeispiele_WS14\Elektronik_Vor\diff_mit_re.asc

.step re=0.001
.step re=100
.step re=200
.step re=300
.step re=400
.step re=500

Date: Mon Oct 27 11:28:18 2014
Total elapsed time: 0.371 seconds.

tnom = 27
temp = 27
method = trap
totiter = 810
traniter = 0
tranpoints = 0
accept = 0
rejected = 0
matrix size = 19
fillins = 0
solver = Normal
Matrix Compiler1: 1,01 KB object code size  2.2/1.9/[1.6]
Matrix Compiler2: 1,48 KB object code size  1.6/2.2/[1.7]


