Stray ".ends" card: .ends
Stray ".ends" card: .ends
Stray ".ends" card: .ends
Circuit: * Z:\home\koblitz\Simulationsbeispiele_WS14\Elektronik_Vor\emitterschalung-miller.asc

Direct Newton iteration for .op point succeeded.

Date: Mon Dec 01 11:44:58 2014
Total elapsed time: 0.064 seconds.

tnom = 27
temp = 27
method = trap
totiter = 8
traniter = 0
tranpoints = 0
accept = 0
rejected = 0
matrix size = 12
fillins = 0
solver = Normal
Matrix Compiler1:      27 opcodes
Matrix Compiler2: 852 Bytes object code size

