Stray ".ends" card: .ends
Stray ".ends" card: .ends
Stray ".ends" card: .ends
Circuit: * Z:\home\koblitz\Simulationsbeispiele_WS14\Elektronik_Vor\kollektorschaltung_skript.asc

Direct Newton iteration for .op point succeeded.

Date: Thu Nov 20 11:40:48 2014
Total elapsed time: 0.101 seconds.

tnom = 27
temp = 27
method = trap
totiter = 8
traniter = 0
tranpoints = 0
accept = 0
rejected = 0
matrix size = 8
fillins = 0
solver = Normal
Matrix Compiler1:      17 opcodes
Matrix Compiler2: 554 Bytes object code size

