Circuit: * Z:\home\koblitz\Simulationsbeispiele_WS14\Elektronik_Vor\RC-Glied_mit_anfangsbedingung.asc

Per .tran options, skipping operating point for transient analysis.

Date: Wed Nov 05 09:48:01 2014
Total elapsed time: 0.076 seconds.

tnom = 27
temp = 27
method = modified trap
totiter = 2082
traniter = 2082
tranpoints = 1042
accept = 1042
rejected = 0
matrix size = 4
fillins = 0
solver = Normal
Matrix Compiler1: 100 Bytes object code size  1.9/1.8/[1.8]
Matrix Compiler2: off  [1.6]/1.8/1.9


