Circuit: * Z:\home\koblitz\Simulationsbeispiele_WS14\Elektronik_Vor\schalt_mit_2_dioden.asc


Date: Thu Oct 09 11:29:37 2014
Total elapsed time: 0.031 seconds.

tnom = 27
temp = 27
method = trap
totiter = 1017
traniter = 0
tranpoints = 0
accept = 0
rejected = 0
matrix size = 8
fillins = 0
solver = Normal
Matrix Compiler1: 210 Bytes object code size  3.5/3.2/[2.6]
Matrix Compiler2: 506 Bytes object code size  2.6/3.0/[1.2]


