Circuit: * Z:\home\koblitz\Simulationsbeispiele_WS14\Elektronik_Vor\stromspiegel.asc

Direct Newton iteration for .op point succeeded.

Date: Thu Dec 04 11:41:58 2014
Total elapsed time: 0.927 seconds.

tnom = 27
temp = 27
method = trap
totiter = 7
traniter = 0
tranpoints = 0
accept = 0
rejected = 0
matrix size = 7
fillins = 0
solver = Normal
Matrix Compiler1:      23 opcodes
Matrix Compiler2: 535 Bytes object code size

