Stray ".ends" card: .ends
Stray ".ends" card: .ends
Stray ".ends" card: .ends
Circuit: * Z:\home\koblitz\Simulationsbeispiele_WS14\Elektronik_Vor\UK_17_ähnlich.asc


Date: Wed Oct 29 09:18:10 2014
Total elapsed time: 0.097 seconds.

tnom = 27
temp = 27
method = trap
totiter = 263
traniter = 0
tranpoints = 0
accept = 0
rejected = 0
matrix size = 12
fillins = 0
solver = Normal
Matrix Compiler1: 552 Bytes object code size  2.4/2.4/[1.8]
Matrix Compiler2: 872 Bytes object code size  2.0/2.7/[1.8]


