Stray ".ends" card: .ends
Stray ".ends" card: .ends
Stray ".ends" card: .ends
Circuit: * Z:\home\koblitz\Simulationsbeispiele_WS14\Elektronik_Vor\verst_basisschaltung_skript.asc

Direct Newton iteration for .op point succeeded.

Date: Mon Nov 17 11:55:28 2014
Total elapsed time: 0.152 seconds.

tnom = 27
temp = 27
method = trap
totiter = 7
traniter = 0
tranpoints = 0
accept = 0
rejected = 0
matrix size = 10
fillins = 0
solver = Normal
Matrix Compiler1:      18 opcodes
Matrix Compiler2: 658 Bytes object code size

