Circuit: * C:\Program Files (x86)\LTC_ALL\LTspiceIV_4.18_multiLibs\examples\Robertugo\Audio\Tl431_3v_Amp.asc

Direct Newton iteration for .op point succeeded.

Date: Mon Feb 09 12:11:08 2015
Total elapsed time: 0.044 seconds.

tnom = 27
temp = 27
method = modified trap
totiter = 2090
traniter = 2082
tranpoints = 1042
accept = 1042
rejected = 0
matrix size = 16
fillins = 8
solver = Normal
Matrix Compiler1: 898 bytes object code size  0.4/0.3/[0.2]
Matrix Compiler2: 1.14 KB object code size  0.3/0.4/[0.3]


