Circuit: * C:\Program Files (x86)\LTC_ALL\LTspiceIV_4.18_multiLibs\examples\LTspiceWorldTour2009\Analis&Aids\Startup\StartUp1.asc

Direct Newton iteration for .op point succeeded.

Date: Mon Feb 09 11:52:24 2015
Total elapsed time: 3.791 seconds.

tnom = 27
temp = 27
method = modified trap
totiter = 327250
traniter = 327243
tranpoints = 102173
accept = 77555
rejected = 24618
matrix size = 37
fillins = 3
solver = Normal
Matrix Compiler1:      66 opcodes  0.7/[0.6]/1.1
Matrix Compiler2: 2.09 KB object code size  0.5/0.9/[0.5]


