Circuit: * Z:\home\mainster\CODES_local\LTSpice_projects\Differenzverstärker_übersicht\DIFFERENZVERSTÄRKER.asc


Date: Tue Feb 17 21:47:01 2015
Total elapsed time: 0.047 seconds.

tnom = 27
temp = 27
method = trap
totiter = 450
traniter = 0
tranpoints = 0
accept = 0
rejected = 0
matrix size = 60
fillins = 8
solver = Normal
Matrix Compiler1: 4.30 KB object code size  2.8/1.3/[0.8]
Matrix Compiler2: 5.46 KB object code size  1.7/1.6/[0.6]


