Circuit: * C:\users\mainster\Desktop\pswoche\praxissem_woche_2014\beta.asc


Date: Tue Dec 02 17:24:07 2014
Total elapsed time: 0.112 seconds.

tnom = 27
temp = 27
method = trap
totiter = 184
traniter = 0
tranpoints = 0
accept = 0
rejected = 0
matrix size = 13
fillins = 11
solver = Normal
Matrix Compiler1: 1,51 KB object code size  1.5/0.7/[0.6]
Matrix Compiler2: 1,22 KB object code size  0.7/0.6/[0.5]


