Circuit: * Z:\home\mainster\CODES_local\LTSpice_projects\praxissem_2014\Draft2.asc

WARNING: Node N003 is floating.

Direct Newton iteration for .op point succeeded.

Date: Tue Dec 02 23:25:18 2014
Total elapsed time: 0.076 seconds.

tnom = 27
temp = 27
method = modified trap
totiter = 9131
traniter = 9106
tranpoints = 3898
accept = 2480
rejected = 1418
matrix size = 8
fillins = 0
solver = Normal
Matrix Compiler1: 210 bytes object code size  0.3/0.2/[0.2]
Matrix Compiler2: off  [0.2]/0.3/0.3


