Circuit: * Z:\home\mainster\CODES_local\LTSpice_projects\praxissem_2014\ersatzschaltungen.asc

WARNING: Node N010 is floating.

WARNING: Less than two connections to node N008.  This node is used by R5.
WARNING: Less than two connections to node N006.  This node is used by R6.

Date: Wed Dec 03 03:55:32 2014
Total elapsed time: 0.155 seconds.

tnom = 27
temp = 27
method = trap
totiter = 283
traniter = 0
tranpoints = 0
accept = 0
rejected = 0
matrix size = 37
fillins = 23
solver = Normal
Matrix Compiler1: 3,61 KB object code size  1.8/1.1/[0.6]
Matrix Compiler2: 3,15 KB object code size  0.8/1.0/[0.5]


