Circuit: * Z:\home\mainster\CODES_local\LTSpice_projects\praxissem_2014\MicAmp2.asc

WARNING: Node N007 is floating.

WARNING: Less than two connections to node N007.  This node is used by C7.
Direct Newton iteration for .op point succeeded.
Heightened Def Con from 5.36157e-006 to 5.36157e-006

Date: Wed Dec 03 03:54:23 2014
Total elapsed time: 43.088 seconds.

tnom = 27
temp = 27
method = modified trap
totiter = 3680512
traniter = 3680501
tranpoints = 1299745
accept = 888274
rejected = 411472
matrix size = 34
fillins = 41
solver = Normal
Matrix Compiler1: 4,61 KB object code size  2.1/1.3/[0.7]
Matrix Compiler2: 3,49 KB object code size  1.2/1.0/[0.7]


