Missing ".ends" statement in file "MDB_sub/HFbjt.sub"
Circuit: * Z:\home\mainster\CODES_local\LTSpice_projects\praxissem_2014\wanze_107MHz_doppel_capDiod_nach_micronas.asc

WARNING: Less than two connections to node RB.  This node is used by V:U5:1.
WARNING: Less than two connections to node RE.  This node is used by V:U6:1.
WARNING: Less than two connections to node N003.  This node is used by V:U7:1.
Direct Newton iteration failed to find .op point.  (Use ".option noopiter" to skip.)
Starting Gmin stepping
Gmin = 10
Gmin = 1.07374
Gmin = 0.115292
Gmin = 0.0123794
Gmin = 0.00132923
vernier = 0.5
Gmin = 0.000223007
vernier = 0.25
vernier = 0.125
vernier = 0.0625
vernier = 0.03125
vernier = 0.015625
vernier = 0.0078125
vernier = 0.00390625
vernier = 0.00195313
vernier = 0.000976563
vernier = 0.000488281
Gmin = 0.000223007
Gmin = 0
Gmin stepping failed

Starting source stepping with srcstepmethod=0
Source Step = 3.0303%
Source Step = 33.3333%
Source Step = 63.6364%
Source Step = 63.6512%
Starting source stepping with srcstepmethod=1
Source Step = 3.0303%
Source Step = 33.3333%
Source Step = 63.6364%
Source Step = 93.9394%
Source Step = 99.0089%
Source stepping failed

Pseudo Transient failed in finding the operating point.
Trouble finding operating point....skipping operating point for Transient analysis.

Date: Sat Dec 06 18:23:33 2014
Total elapsed time: 29.796 seconds.

tnom = 27
temp = 27
method = modified trap
totiter = 2793174
traniter = 0
tranpoints = 1
accept = 1
rejected = 85311
matrix size = 48
fillins = 24
solver = Normal
Thread vector: 11.5/7.9[2] 4.9/4.2[2] 1.4/2.5[1] 0.8/1.7[1]  2592/500
Matrix Compiler1: 4.38 KB object code size  2.3/1.3/[0.7]
Matrix Compiler2: 4.09 KB object code size  1.5/1.5/[0.9]


