Questionable use of curly braces in "src={es2ba}"
    Error: undefined symbol in: "[es2ba]"
Circuit: * Z:\home\mainster\CODES_local\LTSpice_projects\praxissem_2014\wanze_107MHz_doppel_capDiod_nach_micronas_erstaz.asc

WARNING: Less than two connections to node RB.  This node is used by V:U5:1.
WARNING: Less than two connections to node RE.  This node is used by V:U6:1.
WARNING: Less than two connections to node RPI.  This node is used by V:U7:1.
WARNING: Less than two connections to node RLP.  This node is used by V:U1:1.
WARNING: Less than two connections to node FOSC.  This node is used by V:U3:1.
WARNING: Less than two connections to node RLS.  This node is used by V:U4:1.
WARNING: Less than two connections to node STIM.  This node is used by V2.
Direct Newton iteration for .op point succeeded.

Date: Sun Dec 07 05:02:09 2014
Total elapsed time: 0.155 seconds.

tnom = 27
temp = 27
method = modified trap
totiter = 14842
traniter = 14826
tranpoints = 6294
accept = 4509
rejected = 1785
matrix size = 31
fillins = 1
solver = Normal
Matrix Compiler1: 838 bytes object code size  0.7/0.4/[0.4]
Matrix Compiler2: off  [0.4]/0.6/0.5


