Circuit: * Z:\home\mainster\CODES_local\LTSpice_projects\praxissem_2014\wanze_107MHz_doppel_capDiod_SchwingungSchwingt.asc

WARNING: Node N014 is floating.

WARNING: Less than two connections to node RB.  This node is used by V:U6:1.
WARNING: Less than two connections to node RE.  This node is used by V:U7:1.
WARNING: Less than two connections to node N003.  This node is used by V:U8:1.
WARNING: Less than two connections to node N012.  This node is used by R20.
WARNING: Less than two connections to node N010.  This node is used by R14.
Direct Newton iteration for .op point succeeded.
Heightened Def Con from 5.93877e-006 to 5.93877e-006

Date: Wed Dec 03 03:59:21 2014
Total elapsed time: 29.638 seconds.

tnom = 27
temp = 27
method = modified trap
totiter = 760957
traniter = 760933
tranpoints = 267073
accept = 185648
rejected = 81426
matrix size = 73
fillins = 67
solver = Normal
Thread vector: 22.9/20.6[2] 13.1/9.7[2] 2.5/4.0[1] 1.4/4.2[1]  2592/500
Matrix Compiler1: 8.35 KB object code size  4.8/3.2/[1.5]
Matrix Compiler2: 6.73 KB object code size  2.6/3.8/[1.9]


