Circuit: * C:\Program Files (x86)\LTC_ALL\LTspiceIV_4.18_multiLibs\examples\LTspiceWorldTour2009\Misc\Dimmer\dimmer.asc

.OP point found by inspection.
.step rdim=1000
.step rdim=100000
.step rdim=200000

Date: Mon Feb 09 11:57:36 2015
Total elapsed time: 6.393 seconds.

tnom = 27
temp = 27
method = modified trap
totiter = 168509
traniter = 168509
tranpoints = 38207
accept = 28200
rejected = 10007
matrix size = 15
fillins = 2
solver = Normal
Matrix Compiler1: 1.43 KB object code size  0.5/0.3/[0.3]
Matrix Compiler2: 1.33 KB object code size  0.5/0.4/[0.3]


