Circuit: * Z:\home\mainster\CODES_local\LTSpice_projects\LIBRARYS\alternative_libs\Bordodynov\LTspiceIV\lib\sym\EXTRA\AudioOpamp\NS\LM3886_MV2LT1363TRANSasc-1.asc

