Circuit: * Z:\home\mainster\CODES_local\LTSpice_projects\impedance\impedance.asc

Error on line 24 : .spice error log command
	 Unknown control card
.OP point found by inspection.

vout_rms: RMS(v(out)*sqrt(2))=4.86605 FROM 0.00118493 TO 0.00368493
vuc_rms: RMS(v(uc))=1.92378 FROM 0.00118493 TO 0.00368493
diff_rms: vuc_rms-vout_rms=-2.94227
vout_avg=0.0025 FROM 0.00118493 TO 0.00368493
vuc_avg: AVG(v(uc))=-1.44416e-015 FROM 0.00118493 TO 0.00368493
diff_avg: vuc_avg-vout_avg=-0.0025


Date: Thu Jul 30 21:34:29 2015
Total elapsed time: 0.028 seconds.

tnom = 27
temp = 27
method = modified trap
totiter = 2920
traniter = 2920
tranpoints = 1461
accept = 1223
rejected = 238
matrix size = 4
fillins = 0
solver = Normal
Matrix Compiler1: 100 bytes object code size  0.2/0.2/[0.2]
Matrix Compiler2: 248 bytes object code size  0.2/0.2/[0.2]


