Circuit: * Z:\home\koblitz\Simulationsbeispiele_SS15\ADS\klausurvorbereitung-beispiele.asc

WARNING: Less than two connections to node F1.  This node is used by B:U1:1.
WARNING: Less than two connections to node PHI1A.  This node is used by V1.
WARNING: Less than two connections to node PHI1B.  This node is used by V3.
Direct Newton iteration for .op point succeeded.

Date: Tue Jun 30 11:04:20 2015
Total elapsed time: 1.106 seconds.

tnom = 27
temp = 27
method = modified trap
totiter = 98733
traniter = 98729
tranpoints = 49363
accept = 49356
rejected = 7
matrix size = 22
fillins = 0
solver = Normal
Matrix Compiler1: 460 Bytes object code size  2.4/2.0/[1.9]
Matrix Compiler2: 1,02 KB object code size  2.5/2.9/[2.2]


