Circuit: * Z:\home\koblitz\Simulationsbeispiele_SS15\ADS\pll_harmonic locking.asc

WARNING: Less than two connections to node NC_01.  This node is used by A:U2:1.
WARNING: Less than two connections to node NC_02.  This node is used by A:U8:1.
Per .tran options, skipping operating point for transient analysis.
Ignoring empty pin current: Ix(u1:1)
Ignoring empty pin current: Ix(u1:2)
Ignoring empty pin current: Ix(u4:in)
Ignoring empty pin current: Ix(u5:in)
Ignoring empty pin current: Ix(u6:inp)
Ignoring empty pin current: Ix(u6:inm)

Date: Tue Jun 23 11:26:22 2015
Total elapsed time: 22.300 seconds.

tnom = 27
temp = 27
method = modified trap
totiter = 794116
traniter = 794116
tranpoints = 322218
accept = 298780
rejected = 23438
matrix size = 44
fillins = 4
solver = Normal
Matrix Compiler1:      76 opcodes  3.9/[3.1]/268.7
Matrix Compiler2: 2,43 KB object code size  3.1/4.2/[2.7]


