Circuit: * Z:\home\koblitz\Simulationsbeispiele_SS15\ADS\pll_filt3-psprung-RS.asc

WARNING: Less than two connections to node FE.  This node is used by B1.
Per .tran options, skipping operating point for transient analysis.
Ignoring empty pin current: Ix(u4:in)
Ignoring empty pin current: Ix(u6:inp)
Ignoring empty pin current: Ix(u6:inm)

Date: Tue Jun 30 11:29:15 2015
Total elapsed time: 0.505 seconds.

tnom = 27
temp = 27
method = modified trap
totiter = 21002
traniter = 21002
tranpoints = 10251
accept = 10195
rejected = 56
matrix size = 22
fillins = 5
solver = Normal
Matrix Compiler1: 820 Bytes object code size  2.9/2.7/[2.0]
Matrix Compiler2: 1,28 KB object code size  2.5/3.1/[2.1]


