Circuit: * Z:\home\koblitz\Simulationsbeispiele_SS15\ADS\pll_filt3-fsprung-RS.asc

WARNING: Less than two connections to node OMEGAE_NORM.  This node is used by B1.
Per .tran options, skipping operating point for transient analysis.
Ignoring empty pin current: Ix(u4:in)
Ignoring empty pin current: Ix(u6:inp)
Ignoring empty pin current: Ix(u6:inm)

Date: Tue May 12 10:51:55 2015
Total elapsed time: 4.589 seconds.

tnom = 27
temp = 27
method = modified trap
totiter = 51813
traniter = 51813
tranpoints = 17099
accept = 13014
rejected = 4085
matrix size = 32
fillins = 5
solver = Normal
Matrix Compiler1: 1,21 KB object code size  2.4/2.3/[1.6]
Matrix Compiler2: 1,88 KB object code size  1.7/2.5/[1.8]


