Circuit: * Z:\home\koblitz\Simulationsbeispiele_SS15\ADS\pll_costas_noise.asc

Per .tran options, skipping operating point for transient analysis.
Ignoring empty pin current: Ix(u1:1)
Ignoring empty pin current: Ix(u1:2)
Ignoring empty pin current: Ix(u8:1)
Ignoring empty pin current: Ix(u8:2)
Ignoring empty pin current: Ix(u3:1)
Ignoring empty pin current: Ix(u3:2)

Date: Tue Jun 16 10:32:15 2015
Total elapsed time: 81.757 seconds.

tnom = 27
temp = 27
method = modified trap
totiter = 5865781
traniter = 5865781
tranpoints = 1528966
accept = 1063364
rejected = 465602
matrix size = 25
fillins = 0
solver = Normal
Matrix Compiler1: 538 Bytes object code size  1.9/1.7/[1.5]
Matrix Compiler2: 1,35 KB object code size  1.8/2.2/[1.6]


