Circuit: * C:\Program Files (x86)\LTC_ALL\LTspiceIV_4.18_multiLibs\examples\LtSpicePlus\Digital\ttl\74ac_t\74ACT_Example.asc

WARNING: Less than two connections to node VCC.  This node is used by V1.
WARNING: Less than two connections to node OUT.  This node is used by R:U8:OUT:OUT.
Direct Newton iteration for .op point succeeded.
Ignoring empty pin current: Ix(u8:vcc)
Ignoring empty pin current: Ix(u8:in:vcc)
Ignoring empty pin current: Ix(u8:out:vcc)
Ignoring empty pin current: Ix(u8:vcc)
Ignoring empty pin current: Ix(u8:in:vcc)
Ignoring empty pin current: Ix(u8:out:vcc)

Date: Mon Feb 09 11:36:32 2015
Total elapsed time: 0.031 seconds.

tnom = 27
temp = 27
method = modified trap
totiter = 802
traniter = 797
tranpoints = 392
accept = 369
rejected = 23
matrix size = 13
fillins = 0
solver = Normal
Matrix Compiler1: 316 bytes object code size  0.2/0.2/[0.2]
Matrix Compiler2: 643 bytes object code size  0.2/0.3/[0.2]


