Circuit: * Z:\home\mainster\CODES_local\LTSpice_projects\Differenzverstärker_übersicht\DIFFERENZVERSTAERKER_source-i_OFFSET.asc

WARNING: Less than two connections to node PL.  This node is used by V:U3:1.
WARNING: Less than two connections to node PR.  This node is used by V:U4:1.
.step setf=0.01
.step setf=0.21
.step setf=0.41
.step setf=0.61
.step setf=0.81
.step setf=0.99

Date: Fri Jun 19 22:06:54 2015
Total elapsed time: 0.217 seconds.

tnom = 27
temp = 27
method = trap
totiter = 1140
traniter = 0
tranpoints = 0
accept = 0
rejected = 0
matrix size = 33
fillins = 16
solver = Normal
Matrix Compiler1:     155 opcodes  1.3/0.9/[0.4]
Matrix Compiler2: 2.91 KB object code size  0.5/0.7/[0.4]


