Circuit: * Z:\home\mainster\CODES_local\LTSpice_projects\galvoscanner\aktuell\currentsense\LTC1966_TA09.asc

Direct Newton iteration for .op point succeeded.
.step arms=5
.step arms=10
.step arms=70

Date: Fri May 15 02:34:35 2015
Total elapsed time: 0.552 seconds.

tnom = 27
temp = 27
method = modified trap
totiter = 24373
traniter = 24358
tranpoints = 7413
accept = 5412
rejected = 2001
matrix size = 19
fillins = 1
solver = Normal
Matrix Compiler1: 742 bytes object code size  1.1/0.4/[0.3]
Matrix Compiler2: 1.26 KB object code size  0.4/0.5/[0.4]


