Circuit: * C:\users\mainster\My Documents\CODES_local\LTSpice_projects\galvoscanner\aktuell\currentsense\LTC2050HV_bidirect_current_sense_demo.asc

Direct Newton iteration failed to find .op point.  (Use ".option noopiter" to skip.)
Starting Gmin stepping
Gmin = 10
Gmin = 1.07374
Gmin = 0.115292
Gmin = 0.0123794
Gmin = 0.00132923
Gmin = 0.000142725
Gmin = 1.5325e-005
Gmin = 1.6455e-006
Gmin = 1.76685e-007
Gmin = 1.89714e-008
Gmin = 2.03704e-009
Gmin = 2.18725e-010
Gmin = 2.34854e-011
Gmin = 2.52173e-012
Gmin = 2.70769e-013
Gmin = 0
Gmin stepping succeeded in finding the operating point.


Date: Thu May 14 18:52:08 2015
Total elapsed time: 0.126 seconds.

tnom = 27
temp = 27
method = modified trap
totiter = 2487
traniter = 2122
tranpoints = 1062
accept = 1058
rejected = 4
matrix size = 17
fillins = 8
solver = Normal
Matrix Compiler1: 1.08 KB object code size  0.6/0.4/[0.3]
Matrix Compiler2: 1.59 KB object code size  0.5/0.6/[0.6]


