Circuit: * Z:\home\mainster\CODES_local\LTSpice_projects\galvoscanner\aktuell\currentsense\LTC2050HV_TA08 (1).asc

Direct Newton iteration failed to find .op point.  (Use ".option noopiter" to skip.)
Starting Gmin stepping
Gmin = 10
Gmin = 1.07374
Gmin = 0.115292
Gmin = 0.0123794
Gmin = 0.00132923
Gmin = 0.000142725
Gmin = 1.5325e-005
Gmin = 1.6455e-006
Gmin = 1.76685e-007
Gmin = 1.89714e-008
Gmin = 2.03704e-009
Gmin = 2.18725e-010
Gmin = 2.34854e-011
Gmin = 2.52173e-012
Gmin = 2.70769e-013
Gmin = 0
Gmin stepping succeeded in finding the operating point.


Date: Tue Jun 02 02:03:04 2015
Total elapsed time: 0.156 seconds.

tnom = 27
temp = 27
method = modified trap
totiter = 2487
traniter = 2122
tranpoints = 1062
accept = 1060
rejected = 2
matrix size = 14
fillins = 7
solver = Normal
Matrix Compiler1: 878 bytes object code size  0.4/0.3/[0.2]
Matrix Compiler2: off  [0.5]/0.5/0.6


