Circuit: * Z:\home\mainster\CODES_local\LTSpice_projects\oscillators\CrystalModel_good.asc

WARNING: Node X3:N001 is floating.
WARNING: Node X1:N001 is floating.

WARNING: Less than two connections to node FL.  This node is used by V:U1:1.
Direct Newton iteration for .op point succeeded.
.step cl=2e-014
.step cl=1e-012
.step cl=5e-012
.step cl=2e-011


Measurement: minmag
  step	MIN(mag(v(za)))	FROM	TO
     1	(8.0006,0)	7e+006	9e+006
     2	(8.00054,0)	7e+006	9e+006
     3	(8.00031,0)	7e+006	9e+006
     4	(7.99928,0)	7e+006	9e+006

Measurement: maxmag
  step	MAX(mag(v(za)))	FROM	TO
     1	(121903,0)	7e+006	9e+006
     2	(111521,0)	7e+006	9e+006
     3	(80424.4,0)	7e+006	9e+006
     4	(32844.8,0)	7e+006	9e+006

Measurement: fs
  step	freq	at
     1	(7.46122e+006,0)	7.46122e+006
     2	(7.46122e+006,0)	7.46122e+006
     3	(7.46122e+006,0)	7.46122e+006
     4	(7.46121e+006,0)	7.46121e+006

Measurement: fp
  step	freq	at
     1	(8.09031e+006,0)	8.09031e+006
     2	(8.06191e+006,0)	8.06191e+006
     3	(7.9685e+006,0)	7.9685e+006
     4	(7.78168e+006,0)	7.78168e+006

Measurement: df
  step	fp-fs
     1	(629089,0)
     2	(600686,0)
     3	(507279,0)
     4	(320470,0)

Measurement: minmagb
  step	MIN(mag(v(zb)))	FROM	TO
     1	(203.821,0)	7e+006	9e+006
     2	(202.316,0)	7e+006	9e+006
     3	(196.295,0)	7e+006	9e+006
     4	(175.543,0)	7e+006	9e+006

Measurement: maxmagb
  step	MAX(mag(v(zb)))	FROM	TO
     1	(81498.8,0)	7e+006	9e+006
     2	(77375.7,0)	7e+006	9e+006
     3	(21835.9,0)	7e+006	9e+006
     4	(3873.74,0)	7e+006	9e+006

Measurement: fsb
  step	freq	at
     1	(8.38814e+006,0)	8.38814e+006
     2	(8.38814e+006,0)	8.38814e+006
     3	(8.38814e+006,0)	8.38814e+006
     4	(8.38814e+006,0)	8.38814e+006

Measurement: fpb
  step	freq	at
     1	(8.39014e+006,0)	8.39014e+006
     2	(8.38974e+006,0)	8.38974e+006
     3	(8.38914e+006,0)	8.38914e+006
     4	(8.38854e+006,0)	8.38854e+006

Measurement: dfb
  step	fpb-fsb
     1	(2000.2,0)
     2	(1600.16,0)
     3	(1000.1,0)
     4	(400.041,0)


Date: Tue Apr 26 05:40:01 2016
Total elapsed time: 1.353 seconds.

tnom = 27
temp = 27
method = trap
totiter = 4
traniter = 0
tranpoints = 0
accept = 0
rejected = 0
matrix size = 40
fillins = 0
solver = Normal
Matrix Compiler1:      61 opcodes
Matrix Compiler2: 1,92 KB object code size

