Circuit: * Z:\home\mainster\CODES_local\LTSpice_projects\oscillators\Pierce-Oszillator_C.asc

Warning: Multiple definitions of model "ca3046" Type: BJT
Warning: Multiple definitions of model "bc817-25" Type: BJT
C4: both pins shorted together -- ignoring.
Number of points per octave reduced from 10000 to 9375.
E3: Trouble evaluating Laplacian at DC.
E2: Trouble evaluating Laplacian at DC.
E1: Trouble evaluating Laplacian at DC.
WARNING: Node P003 is floating.
WARNING: Node XC is floating.
WARNING: Node P004 is floating.
WARNING: Node X1:N001 is floating.
WARNING: Node X1:XCS is floating.

WARNING: Less than two connections to node L_Z.  This node is used by B1.
WARNING: Less than two connections to node L_ZZ.  This node is used by E3.
WARNING: Less than two connections to node N007.  This node is used by V:X1:U2:1.
WARNING: Less than two connections to node N010.  This node is used by B:X1:1.
WARNING: Less than two connections to node N006.  This node is used by V:X1:U4:1.
Direct Newton iteration for .op point succeeded.

Date: Tue Apr 26 00:10:27 2016
Total elapsed time: 1.265 seconds.

tnom = 27
temp = 27
method = trap
totiter = 7
traniter = 0
tranpoints = 0
accept = 0
rejected = 0
matrix size = 45
fillins = 2
solver = Normal
Matrix Compiler1:      99 opcodes
Matrix Compiler2: 2,49 KB object code size

