Circuit: * Z:\media\data\CODES\LTspiceWorkspace\LTspice_projects\op_diskret\Draft1.asc

WARNING: Less than two connections to node AL.  This node is used by E1.
.step c6=4.7e-010
.step c6=1e-020

Date: Mon May 29 09:12:40 2017
Total elapsed time: 0.041 seconds.

tnom = 27
temp = 27
method = trap
totiter = 0
traniter = 0
tranpoints = 0
accept = 0
rejected = 0
matrix size = 6
fillins = 3

