Circuit: * Z:\home\mainster\CODES_local\LTSpice_projects\op_diskret\op_1_low-power.asc

I4: both pins shorted together -- ignoring.
.step re=1e-006
Singular matrix:  Check node nc_02
   Iteration No. 1
Singular matrix:  Check node nc_02
   Iteration No. 1
Direct Newton iteration failed to find .op point.  (Use ".option noopiter" to skip.)
Starting Gmin stepping
Gmin = 10
Gmin = 1.07374
Gmin = 0.115292
Gmin = 0.0123794
Gmin = 0.00132923
Gmin = 0.000142725
Gmin = 1.5325e-005
Gmin = 1.6455e-006
Gmin = 1.76685e-007
Gmin = 1.89714e-008
Gmin = 2.03704e-009
Gmin = 2.18725e-010
Singular matrix:  Check node nc_02
   Iteration No. 2
Gmin = 0
Singular matrix:  Check node nc_02
   Iteration No. 1
Gmin stepping failed

Starting source stepping with srcstepmethod=0
Singular matrix:  Check node nc_02
   Iteration No. 1
Singular matrix:  Check node nc_02
   Iteration No. 2
Could not converge to DC with sources off!
Starting source stepping with srcstepmethod=1
Singular matrix:  Check node nc_02
   Iteration No. 1
Source Step = 3.0303%
Source Step = 33.3333%
Source Step = 63.6364%
Source Step = 93.9394%
Source stepping succeeded in finding the operating point.

Singular matrix:  Check node nc_02
   Iteration No. 1
Direct Newton iteration failed to find .op point.  (Use ".option noopiter" to skip.)
Starting Gmin stepping
Gmin = 10
Gmin = 1.07374
Gmin = 0.115292
Gmin = 0.0123794
Gmin = 0.00132923
Gmin = 0.000142725
Gmin = 1.5325e-005
Gmin = 1.6455e-006
Gmin = 1.76685e-007
Gmin = 1.89714e-008
Gmin = 2.03704e-009
Gmin = 2.18725e-010
Singular matrix:  Check node nc_02
   Iteration No. 2
Gmin = 0
Singular matrix:  Check node nc_02
   Iteration No. 1
Gmin stepping failed

Starting source stepping with srcstepmethod=1
Singular matrix:  Check node nc_02
   Iteration No. 1
Singular matrix:  Check node nc_02
   Iteration No. 2
Could not converge to DC with sources off!
Starting source stepping with srcstepmethod=0
Singular matrix:  Check node nc_02
   Iteration No. 1
Source Step = 3.0303%
Source Step = 33.3333%
Source Step = 63.6364%
Source Step = 93.9394%
Source stepping succeeded in finding the operating point.

Singular matrix:  Check node nc_02
   Iteration No. 1
Direct Newton iteration failed to find .op point.  (Use ".option noopiter" to skip.)
Starting Gmin stepping
Gmin = 10
Gmin = 1.07374
Gmin = 0.115292
Gmin = 0.0123794
Gmin = 0.00132923
Gmin = 0.000142725
Gmin = 1.5325e-005
Gmin = 1.6455e-006
Gmin = 1.76685e-007
Gmin = 1.89714e-008
Gmin = 2.03704e-009
Gmin = 2.18725e-010
Singular matrix:  Check node nc_02
   Iteration No. 2
Gmin = 0
Singular matrix:  Check node nc_02
   Iteration No. 1
Gmin stepping failed

Starting source stepping with srcstepmethod=0
Singular matrix:  Check node nc_02
   Iteration No. 1
Singular matrix:  Check node nc_02
   Iteration No. 2
Could not converge to DC with sources off!
Starting source stepping with srcstepmethod=1
Singular matrix:  Check node nc_02
   Iteration No. 1
Source Step = 3.0303%
Source Step = 33.3333%
Source Step = 63.6364%
Source Step = 93.9394%
Source stepping succeeded in finding the operating point.

Singular matrix:  Check node nc_02
   Iteration No. 1
Direct Newton iteration failed to find .op point.  (Use ".option noopiter" to skip.)
Starting Gmin stepping
Gmin = 10
Gmin = 1.07374
Gmin = 0.115292
Gmin = 0.0123794
Gmin = 0.00132923
Gmin = 0.000142725
Gmin = 1.5325e-005
Gmin = 1.6455e-006
Gmin = 1.76685e-007
Gmin = 1.89714e-008
Gmin = 2.03704e-009
Gmin = 2.18725e-010
Singular matrix:  Check node nc_02
   Iteration No. 2
Gmin = 0
Singular matrix:  Check node nc_02
   Iteration No. 1
Gmin stepping failed

Starting source stepping with srcstepmethod=1
Singular matrix:  Check node nc_02
   Iteration No. 1
Singular matrix:  Check node nc_02
   Iteration No. 2
Could not converge to DC with sources off!
Starting source stepping with srcstepmethod=0
Singular matrix:  Check node nc_02
   Iteration No. 1
Source Step = 3.0303%
Source Step = 33.3333%
Source Step = 63.6364%
Source Step = 93.9394%
Source stepping succeeded in finding the operating point.

Singular matrix:  Check node nc_02
   Iteration No. 1
Direct Newton iteration failed to find .op point.  (Use ".option noopiter" to skip.)
Starting Gmin stepping
Gmin = 10
Gmin = 1.07374
Gmin = 0.115292
Gmin = 0.0123794
Gmin = 0.00132923
Gmin = 0.000142725
Gmin = 1.5325e-005
Gmin = 1.6455e-006
Gmin = 1.76685e-007
Gmin = 1.89714e-008
Gmin = 2.03704e-009
Gmin = 2.18725e-010
Singular matrix:  Check node nc_02
   Iteration No. 2
Gmin = 0
Singular matrix:  Check node nc_02
   Iteration No. 1
Gmin stepping failed

Starting source stepping with srcstepmethod=0
Singular matrix:  Check node nc_02
   Iteration No. 1
Singular matrix:  Check node nc_02
   Iteration No. 2
Could not converge to DC with sources off!
Starting source stepping with srcstepmethod=1
Singular matrix:  Check node nc_02
   Iteration No. 1
Source Step = 3.0303%
Source Step = 33.3333%
Source Step = 63.6364%
Source Step = 93.9394%
Source stepping succeeded in finding the operating point.

Singular matrix:  Check node nc_02
   Iteration No. 1
Direct Newton iteration failed to find .op point.  (Use ".option noopiter" to skip.)
Starting Gmin stepping
Gmin = 10
Gmin = 1.07374
Gmin = 0.115292
Gmin = 0.0123794
Gmin = 0.00132923
Gmin = 0.000142725
Gmin = 1.5325e-005
Gmin = 1.6455e-006
Gmin = 1.76685e-007
Gmin = 1.89714e-008
Gmin = 2.03704e-009
Gmin = 2.18725e-010
Singular matrix:  Check node nc_02
   Iteration No. 2
Gmin = 0
Singular matrix:  Check node nc_02
   Iteration No. 1
Gmin stepping failed

Starting source stepping with srcstepmethod=1
Singular matrix:  Check node nc_02
   Iteration No. 1
Singular matrix:  Check node nc_02
   Iteration No. 2
Could not converge to DC with sources off!
Starting source stepping with srcstepmethod=0
Singular matrix:  Check node nc_02
   Iteration No. 1
Source Step = 3.0303%
Source Step = 33.3333%
Source Step = 63.6364%
Source Step = 93.9394%
Source stepping succeeded in finding the operating point.

Singular matrix:  Check node nc_02
   Iteration No. 1
Direct Newton iteration failed to find .op point.  (Use ".option noopiter" to skip.)
Starting Gmin stepping
Gmin = 10
Gmin = 1.07374
Gmin = 0.115292
Gmin = 0.0123794
Gmin = 0.00132923
Gmin = 0.000142725
Gmin = 1.5325e-005
Gmin = 1.6455e-006
Gmin = 1.76685e-007
Gmin = 1.89714e-008
Gmin = 2.03704e-009
Gmin = 2.18725e-010
Singular matrix:  Check node nc_02
   Iteration No. 2
Gmin = 0
Singular matrix:  Check node nc_02
   Iteration No. 1
Gmin stepping failed

Starting source stepping with srcstepmethod=0
Singular matrix:  Check node nc_02
   Iteration No. 1
Singular matrix:  Check node nc_02
   Iteration No. 2
Could not converge to DC with sources off!
Starting source stepping with srcstepmethod=1
Singular matrix:  Check node nc_02
   Iteration No. 1
Source Step = 3.0303%
Source Step = 33.3333%
Source Step = 63.6364%
Source Step = 93.9394%
Source stepping succeeded in finding the operating point.

Singular matrix:  Check node nc_02
   Iteration No. 1
Direct Newton iteration failed to find .op point.  (Use ".option noopiter" to skip.)
Starting Gmin stepping
Gmin = 10
Gmin = 1.07374
Gmin = 0.115292
Gmin = 0.0123794
Gmin = 0.00132923
Gmin = 0.000142725
Gmin = 1.5325e-005
Gmin = 1.6455e-006
Gmin = 1.76685e-007
Gmin = 1.89714e-008
Gmin = 2.03704e-009
Gmin = 2.18725e-010
Singular matrix:  Check node nc_02
   Iteration No. 2
Gmin = 0
Singular matrix:  Check node nc_02
   Iteration No. 1
Gmin stepping failed

Starting source stepping with srcstepmethod=1
Singular matrix:  Check node nc_02
   Iteration No. 1
Singular matrix:  Check node nc_02
   Iteration No. 2
Could not converge to DC with sources off!
Starting source stepping with srcstepmethod=0
Singular matrix:  Check node nc_02
   Iteration No. 1
Source Step = 3.0303%
Source Step = 33.3333%
Source Step = 63.6364%
Source Step = 93.9394%
Source stepping succeeded in finding the operating point.

Singular matrix:  Check node nc_02
   Iteration No. 1
Direct Newton iteration failed to find .op point.  (Use ".option noopiter" to skip.)
Starting Gmin stepping
Gmin = 10
Gmin = 1.07374
Gmin = 0.115292
Gmin = 0.0123794
Gmin = 0.00132923
Gmin = 0.000142725
Gmin = 1.5325e-005
Gmin = 1.6455e-006
Gmin = 1.76685e-007
Gmin = 1.89714e-008
Gmin = 2.03704e-009
Gmin = 2.18725e-010
Singular matrix:  Check node nc_02
   Iteration No. 2
Gmin = 0
Singular matrix:  Check node nc_02
   Iteration No. 1
Gmin stepping failed

Starting source stepping with srcstepmethod=0
Singular matrix:  Check node nc_02
   Iteration No. 1
Singular matrix:  Check node nc_02
   Iteration No. 2
Could not converge to DC with sources off!
Starting source stepping with srcstepmethod=1
Singular matrix:  Check node nc_02
   Iteration No. 1
Source Step = 3.0303%
Source Step = 33.3333%
Source Step = 63.6364%
Source Step = 93.9394%
Source stepping succeeded in finding the operating point.

Singular matrix:  Check node nc_02
   Iteration No. 1
Direct Newton iteration failed to find .op point.  (Use ".option noopiter" to skip.)
Starting Gmin stepping
Gmin = 10
Gmin = 1.07374
Gmin = 0.115292
Gmin = 0.0123794
Gmin = 0.00132923
Gmin = 0.000142725
Gmin = 1.5325e-005
Gmin = 1.6455e-006
Gmin = 1.76685e-007
Gmin = 1.89714e-008
Gmin = 2.03704e-009
Gmin = 2.18725e-010
Singular matrix:  Check node nc_02
   Iteration No. 2
Gmin = 0
Singular matrix:  Check node nc_02
   Iteration No. 1
Gmin stepping failed

Starting source stepping with srcstepmethod=1
Singular matrix:  Check node nc_02
   Iteration No. 1
Singular matrix:  Check node nc_02
   Iteration No. 2
Could not converge to DC with sources off!
Starting source stepping with srcstepmethod=0
Singular matrix:  Check node nc_02
   Iteration No. 1
Source Step = 3.0303%
Source Step = 33.3333%
Source Step = 63.6364%
Source Step = 93.9394%
Source stepping succeeded in finding the operating point.

Singular matrix:  Check node nc_02
   Iteration No. 1
Direct Newton iteration failed to find .op point.  (Use ".option noopiter" to skip.)
Starting Gmin stepping
Gmin = 10
Gmin = 1.07374
Gmin = 0.115292
Gmin = 0.0123794
Gmin = 0.00132923
Gmin = 0.000142725
Gmin = 1.5325e-005
Gmin = 1.6455e-006
Gmin = 1.76685e-007
Gmin = 1.89714e-008
Gmin = 2.03704e-009
Gmin = 2.18725e-010
Singular matrix:  Check node nc_02
   Iteration No. 2
Gmin = 0
Singular matrix:  Check node nc_02
   Iteration No. 1
Gmin stepping failed

Starting source stepping with srcstepmethod=0
Singular matrix:  Check node nc_02
   Iteration No. 1
Singular matrix:  Check node nc_02
   Iteration No. 2
Could not converge to DC with sources off!
Starting source stepping with srcstepmethod=1
Singular matrix:  Check node nc_02
   Iteration No. 1
Source Step = 3.0303%
Source Step = 33.3333%
Source Step = 63.6364%
Source Step = 93.9394%
Source stepping succeeded in finding the operating point.

Singular matrix:  Check node nc_02
   Iteration No. 1
Direct Newton iteration failed to find .op point.  (Use ".option noopiter" to skip.)
Starting Gmin stepping
Gmin = 10
Gmin = 1.07374
Gmin = 0.115292
Gmin = 0.0123794
Gmin = 0.00132923
Gmin = 0.000142725
Gmin = 1.5325e-005
Gmin = 1.6455e-006
Gmin = 1.76685e-007
Gmin = 1.89714e-008
Gmin = 2.03704e-009
Gmin = 2.18725e-010
Singular matrix:  Check node nc_02
   Iteration No. 2
Gmin = 0
Singular matrix:  Check node nc_02
   Iteration No. 1
Gmin stepping failed

Starting source stepping with srcstepmethod=1
Singular matrix:  Check node nc_02
   Iteration No. 1
Singular matrix:  Check node nc_02
   Iteration No. 2
Could not converge to DC with sources off!
Starting source stepping with srcstepmethod=0
Singular matrix:  Check node nc_02
   Iteration No. 1
Source Step = 3.0303%
Source Step = 33.3333%
Source Step = 63.6364%
Source Step = 93.9394%
Source stepping succeeded in finding the operating point.

Singular matrix:  Check node nc_02
   Iteration No. 1
Direct Newton iteration failed to find .op point.  (Use ".option noopiter" to skip.)
Starting Gmin stepping
Gmin = 10
Gmin = 1.07374
Gmin = 0.115292
Gmin = 0.0123794
Gmin = 0.00132923
Gmin = 0.000142725
Gmin = 1.5325e-005
Gmin = 1.6455e-006
Gmin = 1.76685e-007
Gmin = 1.89714e-008
Gmin = 2.03704e-009
Gmin = 2.18725e-010
Singular matrix:  Check node nc_02
   Iteration No. 2
Gmin = 0
Singular matrix:  Check node nc_02
   Iteration No. 1
Gmin stepping failed

Starting source stepping with srcstepmethod=0
Singular matrix:  Check node nc_02
   Iteration No. 1
Singular matrix:  Check node nc_02
   Iteration No. 2
Could not converge to DC with sources off!
Starting source stepping with srcstepmethod=1
Singular matrix:  Check node nc_02
   Iteration No. 1
Source Step = 3.0303%
Source Step = 33.3333%
Source Step = 63.6364%
Source Step = 93.9394%
Source stepping succeeded in finding the operating point.

Singular matrix:  Check node nc_02
   Iteration No. 1
Direct Newton iteration failed to find .op point.  (Use ".option noopiter" to skip.)
Starting Gmin stepping
Gmin = 10
Gmin = 1.07374
Gmin = 0.115292
Gmin = 0.0123794
Gmin = 0.00132923
Gmin = 0.000142725
Gmin = 1.5325e-005
Gmin = 1.6455e-006
Gmin = 1.76685e-007
Gmin = 1.89714e-008
Gmin = 2.03704e-009
Gmin = 2.18725e-010
Singular matrix:  Check node nc_02
   Iteration No. 2
Gmin = 0
Singular matrix:  Check node nc_02
   Iteration No. 1
Gmin stepping failed

Starting source stepping with srcstepmethod=1
Singular matrix:  Check node nc_02
   Iteration No. 1
Singular matrix:  Check node nc_02
   Iteration No. 2
Could not converge to DC with sources off!
Starting source stepping with srcstepmethod=0
Singular matrix:  Check node nc_02
   Iteration No. 1
Source Step = 3.0303%
Source Step = 33.3333%
Source Step = 63.6364%
Source Step = 93.9394%
Source stepping succeeded in finding the operating point.

Singular matrix:  Check node nc_02
   Iteration No. 1
Direct Newton iteration failed to find .op point.  (Use ".option noopiter" to skip.)
Starting Gmin stepping
Gmin = 10
Gmin = 1.07374
Gmin = 0.115292
Gmin = 0.0123794
Gmin = 0.00132923
Gmin = 0.000142725
Gmin = 1.5325e-005
Gmin = 1.6455e-006
Gmin = 1.76685e-007
Gmin = 1.89714e-008
Gmin = 2.03704e-009
Gmin = 2.18725e-010
Singular matrix:  Check node nc_02
   Iteration No. 2
Gmin = 0
Singular matrix:  Check node nc_02
   Iteration No. 1
Gmin stepping failed

Starting source stepping with srcstepmethod=0
Singular matrix:  Check node nc_02
   Iteration No. 1
Singular matrix:  Check node nc_02
   Iteration No. 2
Could not converge to DC with sources off!
Starting source stepping with srcstepmethod=1
Singular matrix:  Check node n002
   Iteration No. 1
Source Step = 3.0303%
Source Step = 33.3333%
Source Step = 63.6364%
Source Step = 93.9394%
Source stepping succeeded in finding the operating point.

Singular matrix:  Check node nc_02
   Iteration No. 1
Direct Newton iteration failed to find .op point.  (Use ".option noopiter" to skip.)
Starting Gmin stepping
Gmin = 10
Gmin = 1.07374
Gmin = 0.115292
Gmin = 0.0123794
Gmin = 0.00132923
Gmin = 0.000142725
Gmin = 1.5325e-005
Gmin = 1.6455e-006
Gmin = 1.76685e-007
Gmin = 1.89714e-008
Gmin = 2.03704e-009
Gmin = 2.18725e-010
Singular matrix:  Check node nc_02
   Iteration No. 2
Gmin = 0
Singular matrix:  Check node nc_02
   Iteration No. 1
Gmin stepping failed

Starting source stepping with srcstepmethod=1
Singular matrix:  Check node nc_02
   Iteration No. 1
Singular matrix:  Check node nc_02
   Iteration No. 2
Could not converge to DC with sources off!
Starting source stepping with srcstepmethod=0
Singular matrix:  Check node nc_02
   Iteration No. 1
Source Step = 3.0303%
Source Step = 33.3333%
Source Step = 63.6364%
Source Step = 93.9394%
Source stepping succeeded in finding the operating point.

Singular matrix:  Check node nc_02
   Iteration No. 1
Direct Newton iteration failed to find .op point.  (Use ".option noopiter" to skip.)
Starting Gmin stepping
Gmin = 10
Gmin = 1.07374
Gmin = 0.115292
Gmin = 0.0123794
Gmin = 0.00132923
Gmin = 0.000142725
Gmin = 1.5325e-005
Gmin = 1.6455e-006
Gmin = 1.76685e-007
Gmin = 1.89714e-008
Gmin = 2.03704e-009
Gmin = 2.18725e-010
Singular matrix:  Check node nc_02
   Iteration No. 2
Gmin = 0
Singular matrix:  Check node nc_02
   Iteration No. 1
Gmin stepping failed

Starting source stepping with srcstepmethod=0
Singular matrix:  Check node nc_02
   Iteration No. 1
Singular matrix:  Check node nc_02
   Iteration No. 2
Could not converge to DC with sources off!
Starting source stepping with srcstepmethod=1
Singular matrix:  Check node n005
   Iteration No. 1
Source Step = 3.0303%
Source Step = 33.3333%
Source Step = 63.6364%
Source Step = 93.9394%
Source stepping succeeded in finding the operating point.

Singular matrix:  Check node nc_02
   Iteration No. 1
Direct Newton iteration failed to find .op point.  (Use ".option noopiter" to skip.)
Starting Gmin stepping
Gmin = 10
Gmin = 1.07374
Gmin = 0.115292
Gmin = 0.0123794
Gmin = 0.00132923
Gmin = 0.000142725
Gmin = 1.5325e-005
Gmin = 1.6455e-006
Gmin = 1.76685e-007
Gmin = 1.89714e-008
Gmin = 2.03704e-009
Gmin = 2.18725e-010
Singular matrix:  Check node nc_02
   Iteration No. 2
Gmin = 0
Singular matrix:  Check node nc_02
   Iteration No. 1
Gmin stepping failed

Starting source stepping with srcstepmethod=1
Singular matrix:  Check node nc_02
   Iteration No. 1
Singular matrix:  Check node nc_02
   Iteration No. 2
Could not converge to DC with sources off!
Starting source stepping with srcstepmethod=0
Singular matrix:  Check node nc_02
   Iteration No. 1
Source Step = 3.0303%
Source Step = 33.3333%
Source Step = 63.6364%
Source Step = 93.9394%
Source stepping succeeded in finding the operating point.

Singular matrix:  Check node nc_02
   Iteration No. 1
Direct Newton iteration failed to find .op point.  (Use ".option noopiter" to skip.)
Starting Gmin stepping
Gmin = 10
Gmin = 1.07374
Gmin = 0.115292
Gmin = 0.0123794
Gmin = 0.00132923
Gmin = 0.000142725
Gmin = 1.5325e-005
Gmin = 1.6455e-006
Gmin = 1.76685e-007
Gmin = 1.89714e-008
Gmin = 2.03704e-009
Gmin = 2.18725e-010
Singular matrix:  Check node nc_02
   Iteration No. 2
Gmin = 0
Singular matrix:  Check node nc_02
   Iteration No. 1
Gmin stepping failed

Starting source stepping with srcstepmethod=0
Singular matrix:  Check node nc_02
   Iteration No. 1
Singular matrix:  Check node nc_02
   Iteration No. 2
Could not converge to DC with sources off!
Starting source stepping with srcstepmethod=1
Singular matrix:  Check node n005
   Iteration No. 1
Source Step = 3.0303%
Source Step = 33.3333%
Source Step = 63.6364%
Source Step = 93.9394%
Source stepping succeeded in finding the operating point.

Singular matrix:  Check node nc_02
   Iteration No. 1
Direct Newton iteration failed to find .op point.  (Use ".option noopiter" to skip.)
Starting Gmin stepping
Gmin = 10
Gmin = 1.07374
Gmin = 0.115292
Gmin = 0.0123794
Gmin = 0.00132923
Gmin = 0.000142725
Gmin = 1.5325e-005
Gmin = 1.6455e-006
Gmin = 1.76685e-007
Gmin = 1.89714e-008
Gmin = 2.03704e-009
Gmin = 2.18725e-010
Singular matrix:  Check node nc_02
   Iteration No. 2
Gmin = 0
Singular matrix:  Check node nc_02
   Iteration No. 1
Gmin stepping failed

Starting source stepping with srcstepmethod=1
Singular matrix:  Check node nc_02
   Iteration No. 1
Singular matrix:  Check node nc_02
   Iteration No. 2
Could not converge to DC with sources off!
Starting source stepping with srcstepmethod=0
Singular matrix:  Check node nc_02
   Iteration No. 1
Source Step = 3.0303%
Source Step = 33.3333%
Source Step = 63.6364%
Source Step = 93.9394%
Source stepping succeeded in finding the operating point.

Singular matrix:  Check node nc_02
   Iteration No. 1
Direct Newton iteration failed to find .op point.  (Use ".option noopiter" to skip.)
Starting Gmin stepping
Gmin = 10
Gmin = 1.07374
Gmin = 0.115292
Gmin = 0.0123794
Gmin = 0.00132923
Gmin = 0.000142725
Gmin = 1.5325e-005
Gmin = 1.6455e-006
Gmin = 1.76685e-007
Gmin = 1.89714e-008
Gmin = 2.03704e-009
Gmin = 2.18725e-010
Singular matrix:  Check node nc_02
   Iteration No. 2
Gmin = 0
Singular matrix:  Check node nc_02
   Iteration No. 1
Gmin stepping failed

Starting source stepping with srcstepmethod=0
Singular matrix:  Check node nc_02
   Iteration No. 1
Singular matrix:  Check node nc_02
   Iteration No. 2
Could not converge to DC with sources off!
Starting source stepping with srcstepmethod=1
Singular matrix:  Check node nc_02
   Iteration No. 1
Source Step = 3.0303%
Source Step = 33.3333%
Source Step = 63.6364%
Source Step = 93.9394%
Source stepping succeeded in finding the operating point.

Singular matrix:  Check node nc_02
   Iteration No. 1
Direct Newton iteration failed to find .op point.  (Use ".option noopiter" to skip.)
Starting Gmin stepping
Gmin = 10
Gmin = 1.07374
Gmin = 0.115292
Gmin = 0.0123794
Gmin = 0.00132923
Gmin = 0.000142725
Gmin = 1.5325e-005
Gmin = 1.6455e-006
Gmin = 1.76685e-007
Gmin = 1.89714e-008
Gmin = 2.03704e-009
Gmin = 2.18725e-010
Singular matrix:  Check node nc_02
   Iteration No. 2
Gmin = 0
Singular matrix:  Check node nc_02
   Iteration No. 1
Gmin stepping failed

Starting source stepping with srcstepmethod=1
Singular matrix:  Check node nc_02
   Iteration No. 1
Singular matrix:  Check node nc_02
   Iteration No. 2
Could not converge to DC with sources off!
Starting source stepping with srcstepmethod=0
Singular matrix:  Check node nc_02
   Iteration No. 1
Source Step = 3.0303%
Source Step = 33.3333%
Source Step = 63.6364%
Source Step = 93.9394%
Source stepping succeeded in finding the operating point.

Singular matrix:  Check node nc_02
   Iteration No. 1
Direct Newton iteration failed to find .op point.  (Use ".option noopiter" to skip.)
Starting Gmin stepping
Gmin = 10
Gmin = 1.07374
Gmin = 0.115292
Gmin = 0.0123794
Gmin = 0.00132923
Gmin = 0.000142725
Gmin = 1.5325e-005
Gmin = 1.6455e-006
Gmin = 1.76685e-007
Gmin = 1.89714e-008
Gmin = 2.03704e-009
Gmin = 2.18725e-010
Singular matrix:  Check node nc_02
   Iteration No. 2
Gmin = 0
Singular matrix:  Check node nc_02
   Iteration No. 1
Gmin stepping failed

Starting source stepping with srcstepmethod=0
Singular matrix:  Check node nc_02
   Iteration No. 1
Singular matrix:  Check node nc_02
   Iteration No. 2
Could not converge to DC with sources off!
Starting source stepping with srcstepmethod=1
Singular matrix:  Check node nc_02
   Iteration No. 1
Source Step = 3.0303%
Source Step = 33.3333%
Source Step = 63.6364%
Source Step = 93.9394%
Source stepping succeeded in finding the operating point.

Singular matrix:  Check node nc_02
   Iteration No. 1
Direct Newton iteration failed to find .op point.  (Use ".option noopiter" to skip.)
Starting Gmin stepping
Gmin = 10
Gmin = 1.07374
Gmin = 0.115292
Gmin = 0.0123794
Gmin = 0.00132923
Gmin = 0.000142725
Gmin = 1.5325e-005
Gmin = 1.6455e-006
Gmin = 1.76685e-007
Gmin = 1.89714e-008
Gmin = 2.03704e-009
Gmin = 2.18725e-010
Singular matrix:  Check node nc_02
   Iteration No. 2
Gmin = 0
Singular matrix:  Check node nc_02
   Iteration No. 1
Gmin stepping failed

Starting source stepping with srcstepmethod=1
Singular matrix:  Check node nc_02
   Iteration No. 1
Singular matrix:  Check node nc_02
   Iteration No. 2
Could not converge to DC with sources off!
Starting source stepping with srcstepmethod=0
Singular matrix:  Check node nc_02
   Iteration No. 1
Source Step = 3.0303%
Source Step = 33.3333%
Source Step = 63.6364%
Source Step = 93.9394%
Source stepping succeeded in finding the operating point.

Singular matrix:  Check node nc_02
   Iteration No. 1
Direct Newton iteration failed to find .op point.  (Use ".option noopiter" to skip.)
Starting Gmin stepping
Gmin = 10
Gmin = 1.07374
Gmin = 0.115292
Gmin = 0.0123794
Gmin = 0.00132923
Gmin = 0.000142725
Gmin = 1.5325e-005
Gmin = 1.6455e-006
Gmin = 1.76685e-007
Gmin = 1.89714e-008
Gmin = 2.03704e-009
Gmin = 2.18725e-010
Singular matrix:  Check node nc_02
   Iteration No. 2
Gmin = 0
Singular matrix:  Check node nc_02
   Iteration No. 1
Gmin stepping failed

Starting source stepping with srcstepmethod=0
Singular matrix:  Check node nc_02
   Iteration No. 1
Singular matrix:  Check node nc_02
   Iteration No. 2
Could not converge to DC with sources off!
Starting source stepping with srcstepmethod=1
Singular matrix:  Check node nc_02
   Iteration No. 1
Source Step = 3.0303%
Source Step = 33.3333%
Source Step = 63.6364%
Source Step = 93.9394%
Source stepping succeeded in finding the operating point.

Singular matrix:  Check node nc_02
   Iteration No. 1
Direct Newton iteration failed to find .op point.  (Use ".option noopiter" to skip.)
Starting Gmin stepping
Gmin = 10
Gmin = 1.07374
Gmin = 0.115292
Gmin = 0.0123794
Gmin = 0.00132923
Gmin = 0.000142725
Gmin = 1.5325e-005
Gmin = 1.6455e-006
Gmin = 1.76685e-007
Gmin = 1.89714e-008
Gmin = 2.03704e-009
Gmin = 2.18725e-010
Singular matrix:  Check node nc_02
   Iteration No. 2
Gmin = 0
Singular matrix:  Check node nc_02
   Iteration No. 1
Gmin stepping failed

Starting source stepping with srcstepmethod=1
Singular matrix:  Check node nc_02
   Iteration No. 1
Singular matrix:  Check node nc_02
   Iteration No. 2
Could not converge to DC with sources off!
Starting source stepping with srcstepmethod=0
Singular matrix:  Check node nc_02
   Iteration No. 1
Source Step = 3.0303%
Source Step = 33.3333%
Source Step = 63.6364%
Source Step = 93.9394%
Source stepping succeeded in finding the operating point.

Singular matrix:  Check node nc_02
   Iteration No. 1
Direct Newton iteration failed to find .op point.  (Use ".option noopiter" to skip.)
Starting Gmin stepping
Gmin = 10
Gmin = 1.07374
Gmin = 0.115292
Gmin = 0.0123794
Gmin = 0.00132923
Gmin = 0.000142725
Gmin = 1.5325e-005
Gmin = 1.6455e-006
Gmin = 1.76685e-007
Gmin = 1.89714e-008
Gmin = 2.03704e-009
Gmin = 2.18725e-010
Singular matrix:  Check node nc_02
   Iteration No. 2
Gmin = 0
Singular matrix:  Check node nc_02
   Iteration No. 1
Gmin stepping failed

Starting source stepping with srcstepmethod=0
Singular matrix:  Check node nc_02
   Iteration No. 1
Singular matrix:  Check node nc_02
   Iteration No. 2
Could not converge to DC with sources off!
Starting source stepping with srcstepmethod=1
Singular matrix:  Check node nc_02
   Iteration No. 1
Source Step = 3.0303%
Source Step = 33.3333%
Source Step = 63.6364%
Source Step = 93.9394%
Source stepping succeeded in finding the operating point.

Singular matrix:  Check node nc_02
   Iteration No. 1
Direct Newton iteration failed to find .op point.  (Use ".option noopiter" to skip.)
Starting Gmin stepping
Gmin = 10
Gmin = 1.07374
Gmin = 0.115292
Gmin = 0.0123794
Gmin = 0.00132923
Gmin = 0.000142725
Gmin = 1.5325e-005
Gmin = 1.6455e-006
Gmin = 1.76685e-007
Gmin = 1.89714e-008
Gmin = 2.03704e-009
Gmin = 2.18725e-010
Singular matrix:  Check node nc_02
   Iteration No. 2
Gmin = 0
Singular matrix:  Check node nc_02
   Iteration No. 1
Gmin stepping failed

Starting source stepping with srcstepmethod=1
Singular matrix:  Check node nc_02
   Iteration No. 1
Singular matrix:  Check node nc_02
   Iteration No. 2
Could not converge to DC with sources off!
Starting source stepping with srcstepmethod=0
Singular matrix:  Check node nc_02
   Iteration No. 1
Source Step = 3.0303%
Source Step = 33.3333%
Source Step = 63.6364%
Source Step = 93.9394%
Source stepping succeeded in finding the operating point.

Singular matrix:  Check node nc_02
   Iteration No. 1
Direct Newton iteration failed to find .op point.  (Use ".option noopiter" to skip.)
Starting Gmin stepping
Gmin = 10
Gmin = 1.07374
Gmin = 0.115292
Gmin = 0.0123794
Gmin = 0.00132923
Gmin = 0.000142725
Gmin = 1.5325e-005
Gmin = 1.6455e-006
Gmin = 1.76685e-007
Gmin = 1.89714e-008
Gmin = 2.03704e-009
Gmin = 2.18725e-010
Singular matrix:  Check node nc_02
   Iteration No. 2
Gmin = 0
Singular matrix:  Check node nc_02
   Iteration No. 1
Gmin stepping failed

Starting source stepping with srcstepmethod=0
Singular matrix:  Check node nc_02
   Iteration No. 1
Singular matrix:  Check node nc_02
   Iteration No. 2
Could not converge to DC with sources off!
Starting source stepping with srcstepmethod=1
Singular matrix:  Check node nc_02
   Iteration No. 1
Source Step = 3.0303%
Source Step = 33.3333%
Source Step = 63.6364%
Source Step = 93.9394%
Source stepping succeeded in finding the operating point.

Singular matrix:  Check node nc_02
   Iteration No. 1
Direct Newton iteration failed to find .op point.  (Use ".option noopiter" to skip.)
Starting Gmin stepping
Gmin = 10
Gmin = 1.07374
Gmin = 0.115292
Gmin = 0.0123794
Gmin = 0.00132923
Gmin = 0.000142725
Gmin = 1.5325e-005
Gmin = 1.6455e-006
Gmin = 1.76685e-007
Gmin = 1.89714e-008
Gmin = 2.03704e-009
Gmin = 2.18725e-010
Singular matrix:  Check node nc_02
   Iteration No. 2
Gmin = 0
Singular matrix:  Check node nc_02
   Iteration No. 1
Gmin stepping failed

Starting source stepping with srcstepmethod=1
Singular matrix:  Check node nc_02
   Iteration No. 1
Singular matrix:  Check node nc_02
   Iteration No. 2
Could not converge to DC with sources off!
Starting source stepping with srcstepmethod=0
Singular matrix:  Check node nc_02
   Iteration No. 1
Source Step = 3.0303%
Source Step = 33.3333%
Source Step = 63.6364%
Source Step = 93.9394%
Source stepping succeeded in finding the operating point.

Singular matrix:  Check node nc_02
   Iteration No. 1
Direct Newton iteration failed to find .op point.  (Use ".option noopiter" to skip.)
Starting Gmin stepping
Gmin = 10
Gmin = 1.07374
Gmin = 0.115292
Gmin = 0.0123794
Gmin = 0.00132923
Gmin = 0.000142725
Gmin = 1.5325e-005
Gmin = 1.6455e-006
Gmin = 1.76685e-007
Gmin = 1.89714e-008
Gmin = 2.03704e-009
Gmin = 2.18725e-010
Singular matrix:  Check node nc_02
   Iteration No. 2
Gmin = 0
Singular matrix:  Check node nc_02
   Iteration No. 1
Gmin stepping failed

Starting source stepping with srcstepmethod=0
Singular matrix:  Check node nc_02
   Iteration No. 1
Singular matrix:  Check node nc_02
   Iteration No. 2
Could not converge to DC with sources off!
Starting source stepping with srcstepmethod=1
Singular matrix:  Check node nc_02
   Iteration No. 1
Source Step = 3.0303%
Source Step = 33.3333%
Source Step = 63.6364%
Source Step = 93.9394%
Source stepping succeeded in finding the operating point.

Singular matrix:  Check node nc_02
   Iteration No. 1
Direct Newton iteration failed to find .op point.  (Use ".option noopiter" to skip.)
Starting Gmin stepping
Gmin = 10
Gmin = 1.07374
Gmin = 0.115292
Gmin = 0.0123794
Gmin = 0.00132923
Gmin = 0.000142725
Gmin = 1.5325e-005
Gmin = 1.6455e-006
Gmin = 1.76685e-007
Gmin = 1.89714e-008
Gmin = 2.03704e-009
Gmin = 2.18725e-010
Singular matrix:  Check node nc_02
   Iteration No. 2
Gmin = 0
Singular matrix:  Check node nc_02
   Iteration No. 1
Gmin stepping failed

Starting source stepping with srcstepmethod=1
Singular matrix:  Check node nc_02
   Iteration No. 1
Singular matrix:  Check node nc_02
   Iteration No. 2
Could not converge to DC with sources off!
Starting source stepping with srcstepmethod=0
Singular matrix:  Check node nc_02
   Iteration No. 1
Source Step = 3.0303%
Source Step = 33.3333%
Source Step = 63.6364%
Source Step = 93.9394%
Source stepping succeeded in finding the operating point.

Singular matrix:  Check node nc_02
   Iteration No. 1
Direct Newton iteration failed to find .op point.  (Use ".option noopiter" to skip.)
Starting Gmin stepping
Gmin = 10
Gmin = 1.07374
Gmin = 0.115292
Gmin = 0.0123794
Gmin = 0.00132923
Gmin = 0.000142725
Gmin = 1.5325e-005
Gmin = 1.6455e-006
Gmin = 1.76685e-007
Gmin = 1.89714e-008
Gmin = 2.03704e-009
Gmin = 2.18725e-010
Singular matrix:  Check node nc_02
   Iteration No. 2
Gmin = 0
Singular matrix:  Check node nc_02
   Iteration No. 1
Gmin stepping failed

Starting source stepping with srcstepmethod=0
Singular matrix:  Check node nc_02
   Iteration No. 1
Singular matrix:  Check node nc_02
   Iteration No. 2
Could not converge to DC with sources off!
Starting source stepping with srcstepmethod=1
Singular matrix:  Check node nc_02
   Iteration No. 1
Source Step = 3.0303%
Source Step = 33.3333%
Source Step = 63.6364%
Source Step = 93.9394%
Source stepping succeeded in finding the operating point.

Singular matrix:  Check node nc_02
   Iteration No. 1
Direct Newton iteration failed to find .op point.  (Use ".option noopiter" to skip.)
Starting Gmin stepping
Gmin = 10
Gmin = 1.07374
Gmin = 0.115292
Gmin = 0.0123794
Gmin = 0.00132923
Gmin = 0.000142725
Gmin = 1.5325e-005
Gmin = 1.6455e-006
Gmin = 1.76685e-007
Gmin = 1.89714e-008
Gmin = 2.03704e-009
Gmin = 2.18725e-010
Singular matrix:  Check node nc_02
   Iteration No. 2
Gmin = 0
Singular matrix:  Check node nc_02
   Iteration No. 1
Gmin stepping failed

Starting source stepping with srcstepmethod=1
Singular matrix:  Check node nc_02
   Iteration No. 1
Singular matrix:  Check node nc_02
   Iteration No. 2
Could not converge to DC with sources off!
Starting source stepping with srcstepmethod=0
Singular matrix:  Check node nc_02
   Iteration No. 1
Source Step = 3.0303%
Source Step = 33.3333%
Source Step = 63.6364%
Source Step = 93.9394%
Source stepping succeeded in finding the operating point.

Singular matrix:  Check node nc_02
   Iteration No. 1
Direct Newton iteration failed to find .op point.  (Use ".option noopiter" to skip.)
Starting Gmin stepping
Gmin = 10
Gmin = 1.07374
Gmin = 0.115292
Gmin = 0.0123794
Gmin = 0.00132923
Gmin = 0.000142725
Gmin = 1.5325e-005
Gmin = 1.6455e-006
Gmin = 1.76685e-007
Gmin = 1.89714e-008
Gmin = 2.03704e-009
Gmin = 2.18725e-010
Singular matrix:  Check node nc_02
   Iteration No. 2
Gmin = 0
Singular matrix:  Check node nc_02
   Iteration No. 1
Gmin stepping failed

Starting source stepping with srcstepmethod=0
Singular matrix:  Check node nc_02
   Iteration No. 1
Singular matrix:  Check node nc_02
   Iteration No. 2
Could not converge to DC with sources off!
Starting source stepping with srcstepmethod=1
Singular matrix:  Check node nc_02
   Iteration No. 1
Source Step = 3.0303%
Source Step = 33.3333%
Source Step = 63.6364%
Source Step = 93.9394%
Source stepping succeeded in finding the operating point.

Singular matrix:  Check node nc_02
   Iteration No. 1
Direct Newton iteration failed to find .op point.  (Use ".option noopiter" to skip.)
Starting Gmin stepping
Gmin = 10
Gmin = 1.07374
Gmin = 0.115292
Gmin = 0.0123794
Gmin = 0.00132923
Gmin = 0.000142725
Gmin = 1.5325e-005
Gmin = 1.6455e-006
Gmin = 1.76685e-007
Gmin = 1.89714e-008
Gmin = 2.03704e-009
Gmin = 2.18725e-010
Singular matrix:  Check node nc_02
   Iteration No. 2
Gmin = 0
Singular matrix:  Check node nc_02
   Iteration No. 1
Gmin stepping failed

Starting source stepping with srcstepmethod=1
Singular matrix:  Check node nc_02
   Iteration No. 1
Singular matrix:  Check node nc_02
   Iteration No. 2
Could not converge to DC with sources off!
Starting source stepping with srcstepmethod=0
Singular matrix:  Check node nc_02
   Iteration No. 1
Source Step = 3.0303%
Source Step = 33.3333%
Source Step = 63.6364%
Source Step = 93.9394%
Source stepping succeeded in finding the operating point.

Singular matrix:  Check node nc_02
   Iteration No. 1
Direct Newton iteration failed to find .op point.  (Use ".option noopiter" to skip.)
Starting Gmin stepping
Gmin = 10
Gmin = 1.07374
Gmin = 0.115292
Gmin = 0.0123794
Gmin = 0.00132923
Gmin = 0.000142725
Gmin = 1.5325e-005
Gmin = 1.6455e-006
Gmin = 1.76685e-007
Gmin = 1.89714e-008
Gmin = 2.03704e-009
Gmin = 2.18725e-010
Singular matrix:  Check node nc_02
   Iteration No. 2
Gmin = 0
Singular matrix:  Check node nc_02
   Iteration No. 1
Gmin stepping failed

Starting source stepping with srcstepmethod=0
Singular matrix:  Check node nc_02
   Iteration No. 1
Singular matrix:  Check node nc_02
   Iteration No. 2
Could not converge to DC with sources off!
Starting source stepping with srcstepmethod=1
Singular matrix:  Check node nc_02
   Iteration No. 1
Source Step = 3.0303%
Source Step = 33.3333%
Source Step = 63.6364%
Source Step = 93.9394%
Source stepping succeeded in finding the operating point.

Singular matrix:  Check node nc_02
   Iteration No. 1
Direct Newton iteration failed to find .op point.  (Use ".option noopiter" to skip.)
Starting Gmin stepping
Gmin = 10
Gmin = 1.07374
Gmin = 0.115292
Gmin = 0.0123794
Gmin = 0.00132923
Gmin = 0.000142725
Gmin = 1.5325e-005
Gmin = 1.6455e-006
Gmin = 1.76685e-007
Gmin = 1.89714e-008
Gmin = 2.03704e-009
Gmin = 2.18725e-010
Singular matrix:  Check node nc_02
   Iteration No. 2
Gmin = 0
Singular matrix:  Check node nc_02
   Iteration No. 1
Gmin stepping failed

Starting source stepping with srcstepmethod=1
Singular matrix:  Check node nc_02
   Iteration No. 1
Singular matrix:  Check node nc_02
   Iteration No. 2
Could not converge to DC with sources off!
Starting source stepping with srcstepmethod=0
Singular matrix:  Check node nc_02
   Iteration No. 1
Source Step = 3.0303%
Source Step = 33.3333%
Source Step = 63.6364%
Source Step = 93.9394%
Source stepping succeeded in finding the operating point.

Singular matrix:  Check node nc_02
   Iteration No. 1
Direct Newton iteration failed to find .op point.  (Use ".option noopiter" to skip.)
Starting Gmin stepping
Gmin = 10
Gmin = 1.07374
Gmin = 0.115292
Gmin = 0.0123794
Gmin = 0.00132923
Gmin = 0.000142725
Gmin = 1.5325e-005
Gmin = 1.6455e-006
Gmin = 1.76685e-007
Gmin = 1.89714e-008
Gmin = 2.03704e-009
Gmin = 2.18725e-010
Singular matrix:  Check node nc_02
   Iteration No. 2
Gmin = 0
Singular matrix:  Check node nc_02
   Iteration No. 1
Gmin stepping failed

Starting source stepping with srcstepmethod=0
Singular matrix:  Check node nc_02
   Iteration No. 1
Singular matrix:  Check node nc_02
   Iteration No. 2
Could not converge to DC with sources off!
Starting source stepping with srcstepmethod=1
Singular matrix:  Check node nc_02
   Iteration No. 1
Source Step = 3.0303%
Source Step = 33.3333%
Source Step = 63.6364%
Source Step = 93.9394%
Source stepping succeeded in finding the operating point.

Singular matrix:  Check node nc_02
   Iteration No. 1
Direct Newton iteration failed to find .op point.  (Use ".option noopiter" to skip.)
Starting Gmin stepping
Gmin = 10
Gmin = 1.07374
Gmin = 0.115292
Gmin = 0.0123794
Gmin = 0.00132923
Gmin = 0.000142725
Gmin = 1.5325e-005
Gmin = 1.6455e-006
Gmin = 1.76685e-007
Gmin = 1.89714e-008
Gmin = 2.03704e-009
Gmin = 2.18725e-010
Singular matrix:  Check node nc_02
   Iteration No. 2
Gmin = 0
Singular matrix:  Check node nc_02
   Iteration No. 1
Gmin stepping failed

Starting source stepping with srcstepmethod=1
Singular matrix:  Check node nc_02
   Iteration No. 1
Singular matrix:  Check node nc_02
   Iteration No. 2
Could not converge to DC with sources off!
Starting source stepping with srcstepmethod=0
Singular matrix:  Check node nc_02
   Iteration No. 1
Source Step = 3.0303%
Source Step = 33.3333%
Source Step = 63.6364%
Source Step = 93.9394%
Source stepping succeeded in finding the operating point.

Singular matrix:  Check node nc_02
   Iteration No. 1
Direct Newton iteration failed to find .op point.  (Use ".option noopiter" to skip.)
Starting Gmin stepping
Gmin = 10
Gmin = 1.07374
Gmin = 0.115292
Gmin = 0.0123794
Gmin = 0.00132923
Gmin = 0.000142725
Gmin = 1.5325e-005
Gmin = 1.6455e-006
Gmin = 1.76685e-007
Gmin = 1.89714e-008
Gmin = 2.03704e-009
Gmin = 2.18725e-010
Singular matrix:  Check node nc_02
   Iteration No. 2
Gmin = 0
Singular matrix:  Check node nc_02
   Iteration No. 1
Gmin stepping failed

Starting source stepping with srcstepmethod=0
Singular matrix:  Check node nc_02
   Iteration No. 1
Singular matrix:  Check node nc_02
   Iteration No. 2
Could not converge to DC with sources off!
Starting source stepping with srcstepmethod=1
Singular matrix:  Check node nc_02
   Iteration No. 1
Source Step = 3.0303%
Source Step = 33.3333%
Source Step = 63.6364%
Source Step = 93.9394%
Source stepping succeeded in finding the operating point.

Singular matrix:  Check node nc_02
   Iteration No. 1
Direct Newton iteration failed to find .op point.  (Use ".option noopiter" to skip.)
Starting Gmin stepping
Gmin = 10
Gmin = 1.07374
Gmin = 0.115292
Gmin = 0.0123794
Gmin = 0.00132923
Gmin = 0.000142725
Gmin = 1.5325e-005
Gmin = 1.6455e-006
Gmin = 1.76685e-007
Gmin = 1.89714e-008
Gmin = 2.03704e-009
Gmin = 2.18725e-010
Singular matrix:  Check node nc_02
   Iteration No. 2
Gmin = 0
Singular matrix:  Check node nc_02
   Iteration No. 1
Gmin stepping failed

Starting source stepping with srcstepmethod=1
Singular matrix:  Check node nc_02
   Iteration No. 1
Singular matrix:  Check node nc_02
   Iteration No. 2
Could not converge to DC with sources off!
Starting source stepping with srcstepmethod=0
Singular matrix:  Check node nc_02
   Iteration No. 1
Source Step = 3.0303%
Source Step = 33.3333%
Source Step = 63.6364%
Source Step = 93.9394%
Source stepping succeeded in finding the operating point.

Singular matrix:  Check node nc_02
   Iteration No. 1
Direct Newton iteration failed to find .op point.  (Use ".option noopiter" to skip.)
Starting Gmin stepping
Gmin = 10
Gmin = 1.07374
Gmin = 0.115292
Gmin = 0.0123794
Gmin = 0.00132923
Gmin = 0.000142725
Gmin = 1.5325e-005
Gmin = 1.6455e-006
Gmin = 1.76685e-007
Gmin = 1.89714e-008
Gmin = 2.03704e-009
Gmin = 2.18725e-010
Singular matrix:  Check node nc_02
   Iteration No. 2
Gmin = 0
Singular matrix:  Check node nc_02
   Iteration No. 1
Gmin stepping failed

Starting source stepping with srcstepmethod=0
Singular matrix:  Check node nc_02
   Iteration No. 1
Singular matrix:  Check node nc_02
   Iteration No. 2
Could not converge to DC with sources off!
Starting source stepping with srcstepmethod=1
Singular matrix:  Check node nc_02
   Iteration No. 1
Source Step = 3.0303%
Source Step = 33.3333%
Source Step = 63.6364%
Source Step = 93.9394%
Source stepping succeeded in finding the operating point.

Singular matrix:  Check node nc_02
   Iteration No. 1
Direct Newton iteration failed to find .op point.  (Use ".option noopiter" to skip.)
Starting Gmin stepping
Gmin = 10
Gmin = 1.07374
Gmin = 0.115292
Gmin = 0.0123794
Gmin = 0.00132923
Gmin = 0.000142725
Gmin = 1.5325e-005
Gmin = 1.6455e-006
Gmin = 1.76685e-007
Gmin = 1.89714e-008
Gmin = 2.03704e-009
Gmin = 2.18725e-010
Singular matrix:  Check node nc_02
   Iteration No. 2
Gmin = 0
Singular matrix:  Check node nc_02
   Iteration No. 1
Gmin stepping failed

Starting source stepping with srcstepmethod=1
Singular matrix:  Check node nc_02
   Iteration No. 1
Singular matrix:  Check node nc_02
   Iteration No. 2
Could not converge to DC with sources off!
Starting source stepping with srcstepmethod=0
Singular matrix:  Check node nc_02
   Iteration No. 1
Source Step = 3.0303%
Source Step = 33.3333%
Source Step = 63.6364%
Source Step = 93.9394%
Source stepping succeeded in finding the operating point.

Singular matrix:  Check node nc_02
   Iteration No. 1
Direct Newton iteration failed to find .op point.  (Use ".option noopiter" to skip.)
Starting Gmin stepping
Gmin = 10
Gmin = 1.07374
Gmin = 0.115292
Gmin = 0.0123794
Gmin = 0.00132923
Gmin = 0.000142725
Gmin = 1.5325e-005
Gmin = 1.6455e-006
Gmin = 1.76685e-007
Gmin = 1.89714e-008
Gmin = 2.03704e-009
Gmin = 2.18725e-010
Singular matrix:  Check node nc_02
   Iteration No. 2
Gmin = 0
Singular matrix:  Check node nc_02
   Iteration No. 1
Gmin stepping failed

Starting source stepping with srcstepmethod=0
Singular matrix:  Check node nc_02
   Iteration No. 1
Singular matrix:  Check node nc_02
   Iteration No. 2
Could not converge to DC with sources off!
Starting source stepping with srcstepmethod=1
Singular matrix:  Check node nc_02
   Iteration No. 1
Source Step = 3.0303%
Source Step = 33.3333%
Source Step = 63.6364%
Source Step = 93.9394%
Source stepping succeeded in finding the operating point.

Singular matrix:  Check node nc_02
   Iteration No. 1
Direct Newton iteration failed to find .op point.  (Use ".option noopiter" to skip.)
Starting Gmin stepping
Gmin = 10
Gmin = 1.07374
Gmin = 0.115292
Gmin = 0.0123794
Gmin = 0.00132923
Gmin = 0.000142725
Gmin = 1.5325e-005
Gmin = 1.6455e-006
Gmin = 1.76685e-007
Gmin = 1.89714e-008
Gmin = 2.03704e-009
Gmin = 2.18725e-010
Singular matrix:  Check node nc_02
   Iteration No. 2
Gmin = 0
Singular matrix:  Check node nc_02
   Iteration No. 1
Gmin stepping failed

Starting source stepping with srcstepmethod=1
Singular matrix:  Check node nc_02
   Iteration No. 1
Singular matrix:  Check node nc_02
   Iteration No. 2
Could not converge to DC with sources off!
Starting source stepping with srcstepmethod=0
Singular matrix:  Check node nc_02
   Iteration No. 1
Source Step = 3.0303%
Source Step = 33.3333%
Source Step = 63.6364%
Source Step = 93.9394%
Source stepping succeeded in finding the operating point.

Singular matrix:  Check node nc_02
   Iteration No. 1
Direct Newton iteration failed to find .op point.  (Use ".option noopiter" to skip.)
Starting Gmin stepping
Gmin = 10
Gmin = 1.07374
Gmin = 0.115292
Gmin = 0.0123794
Gmin = 0.00132923
Gmin = 0.000142725
Gmin = 1.5325e-005
Gmin = 1.6455e-006
Gmin = 1.76685e-007
Gmin = 1.89714e-008
Gmin = 2.03704e-009
Gmin = 2.18725e-010
Singular matrix:  Check node nc_02
   Iteration No. 2
Gmin = 0
Singular matrix:  Check node nc_02
   Iteration No. 1
Gmin stepping failed

Starting source stepping with srcstepmethod=0
Singular matrix:  Check node nc_02
   Iteration No. 1
Singular matrix:  Check node nc_02
   Iteration No. 2
Could not converge to DC with sources off!
Starting source stepping with srcstepmethod=1
Singular matrix:  Check node nc_02
   Iteration No. 1
Source Step = 3.0303%
Source Step = 33.3333%
Source Step = 63.6364%
Source Step = 93.9394%
Source stepping succeeded in finding the operating point.

Singular matrix:  Check node nc_02
   Iteration No. 1
Direct Newton iteration failed to find .op point.  (Use ".option noopiter" to skip.)
Starting Gmin stepping
Gmin = 10
Gmin = 1.07374
Gmin = 0.115292
Gmin = 0.0123794
Gmin = 0.00132923
Gmin = 0.000142725
Gmin = 1.5325e-005
Gmin = 1.6455e-006
Gmin = 1.76685e-007
Gmin = 1.89714e-008
Gmin = 2.03704e-009
Gmin = 2.18725e-010
Singular matrix:  Check node nc_02
   Iteration No. 2
Gmin = 0
Singular matrix:  Check node nc_02
   Iteration No. 1
Gmin stepping failed

Starting source stepping with srcstepmethod=1
Singular matrix:  Check node nc_02
   Iteration No. 1
Singular matrix:  Check node nc_02
   Iteration No. 2
Could not converge to DC with sources off!
Starting source stepping with srcstepmethod=0
Singular matrix:  Check node nc_02
   Iteration No. 1
Source Step = 3.0303%
Source Step = 33.3333%
Source Step = 63.6364%
Source Step = 93.9394%
Source stepping succeeded in finding the operating point.

Singular matrix:  Check node nc_02
   Iteration No. 1
Direct Newton iteration failed to find .op point.  (Use ".option noopiter" to skip.)
Starting Gmin stepping
Gmin = 10
Gmin = 1.07374
Gmin = 0.115292
Gmin = 0.0123794
Gmin = 0.00132923
Gmin = 0.000142725
Gmin = 1.5325e-005
Gmin = 1.6455e-006
Gmin = 1.76685e-007
Gmin = 1.89714e-008
Gmin = 2.03704e-009
Gmin = 2.18725e-010
Singular matrix:  Check node nc_02
   Iteration No. 2
Gmin = 0
Singular matrix:  Check node nc_02
   Iteration No. 1
Gmin stepping failed

Starting source stepping with srcstepmethod=0
Singular matrix:  Check node nc_02
   Iteration No. 1
Singular matrix:  Check node nc_02
   Iteration No. 2
Could not converge to DC with sources off!
Starting source stepping with srcstepmethod=1
Singular matrix:  Check node nc_02
   Iteration No. 1
Source Step = 3.0303%
Source Step = 33.3333%
Source Step = 63.6364%
Source Step = 93.9394%
Source stepping succeeded in finding the operating point.

Singular matrix:  Check node nc_02
   Iteration No. 1
Direct Newton iteration failed to find .op point.  (Use ".option noopiter" to skip.)
Starting Gmin stepping
Gmin = 10
Gmin = 1.07374
Gmin = 0.115292
Gmin = 0.0123794
Gmin = 0.00132923
Gmin = 0.000142725
Gmin = 1.5325e-005
Gmin = 1.6455e-006
Gmin = 1.76685e-007
Gmin = 1.89714e-008
Gmin = 2.03704e-009
Gmin = 2.18725e-010
Singular matrix:  Check node nc_02
   Iteration No. 2
Gmin = 0
Singular matrix:  Check node nc_02
   Iteration No. 1
Gmin stepping failed

Starting source stepping with srcstepmethod=1
Singular matrix:  Check node nc_02
   Iteration No. 1
Singular matrix:  Check node nc_02
   Iteration No. 2
Could not converge to DC with sources off!
Starting source stepping with srcstepmethod=0
Singular matrix:  Check node nc_02
   Iteration No. 1
Source Step = 3.0303%
Source Step = 33.3333%
Source Step = 63.6364%
Source Step = 93.9394%
Source stepping succeeded in finding the operating point.

Singular matrix:  Check node nc_02
   Iteration No. 1
Direct Newton iteration failed to find .op point.  (Use ".option noopiter" to skip.)
Starting Gmin stepping
Gmin = 10
Gmin = 1.07374
Gmin = 0.115292
Gmin = 0.0123794
Gmin = 0.00132923
Gmin = 0.000142725
Gmin = 1.5325e-005
Gmin = 1.6455e-006
Gmin = 1.76685e-007
Gmin = 1.89714e-008
Gmin = 2.03704e-009
Gmin = 2.18725e-010
Singular matrix:  Check node nc_02
   Iteration No. 2
Gmin = 0
Singular matrix:  Check node nc_02
   Iteration No. 1
Gmin stepping failed

Starting source stepping with srcstepmethod=0
Singular matrix:  Check node nc_02
   Iteration No. 1
Singular matrix:  Check node nc_02
   Iteration No. 2
Could not converge to DC with sources off!
Starting source stepping with srcstepmethod=1
Singular matrix:  Check node nc_02
   Iteration No. 1
Source Step = 3.0303%
Source Step = 33.3333%
Source Step = 63.6364%
Source Step = 93.9394%
Source stepping succeeded in finding the operating point.

Singular matrix:  Check node nc_02
   Iteration No. 1
Direct Newton iteration failed to find .op point.  (Use ".option noopiter" to skip.)
Starting Gmin stepping
Gmin = 10
Gmin = 1.07374
Gmin = 0.115292
Gmin = 0.0123794
Gmin = 0.00132923
Gmin = 0.000142725
Gmin = 1.5325e-005
Gmin = 1.6455e-006
Gmin = 1.76685e-007
Gmin = 1.89714e-008
Gmin = 2.03704e-009
Gmin = 2.18725e-010
Singular matrix:  Check node nc_02
   Iteration No. 2
Gmin = 0
Singular matrix:  Check node nc_02
   Iteration No. 1
Gmin stepping failed

Starting source stepping with srcstepmethod=1
Singular matrix:  Check node nc_02
   Iteration No. 1
Singular matrix:  Check node nc_02
   Iteration No. 2
Could not converge to DC with sources off!
Starting source stepping with srcstepmethod=0
Singular matrix:  Check node nc_02
   Iteration No. 1
Source Step = 3.0303%
Source Step = 33.3333%
Source Step = 63.6364%
Source Step = 93.9394%
Source stepping succeeded in finding the operating point.

Singular matrix:  Check node nc_02
   Iteration No. 1
Direct Newton iteration failed to find .op point.  (Use ".option noopiter" to skip.)
Starting Gmin stepping
Gmin = 10
Gmin = 1.07374
Gmin = 0.115292
Gmin = 0.0123794
Gmin = 0.00132923
Gmin = 0.000142725
Gmin = 1.5325e-005
Gmin = 1.6455e-006
Gmin = 1.76685e-007
Gmin = 1.89714e-008
Gmin = 2.03704e-009
Gmin = 2.18725e-010
Singular matrix:  Check node nc_02
   Iteration No. 2
Gmin = 0
Singular matrix:  Check node nc_02
   Iteration No. 1
Gmin stepping failed

Starting source stepping with srcstepmethod=0
Singular matrix:  Check node nc_02
   Iteration No. 1
Singular matrix:  Check node nc_02
   Iteration No. 2
Could not converge to DC with sources off!
Starting source stepping with srcstepmethod=1
Singular matrix:  Check node nc_02
   Iteration No. 1
Source Step = 3.0303%
Source Step = 33.3333%
Source Step = 63.6364%
Source Step = 93.9394%
Source stepping succeeded in finding the operating point.

Singular matrix:  Check node nc_02
   Iteration No. 1
Direct Newton iteration failed to find .op point.  (Use ".option noopiter" to skip.)
Starting Gmin stepping
Gmin = 10
Gmin = 1.07374
Gmin = 0.115292
Gmin = 0.0123794
Gmin = 0.00132923
Gmin = 0.000142725
Gmin = 1.5325e-005
Gmin = 1.6455e-006
Gmin = 1.76685e-007
Gmin = 1.89714e-008
Gmin = 2.03704e-009
Gmin = 2.18725e-010
Singular matrix:  Check node nc_02
   Iteration No. 2
Gmin = 0
Singular matrix:  Check node nc_02
   Iteration No. 1
Gmin stepping failed

Starting source stepping with srcstepmethod=1
Singular matrix:  Check node nc_02
   Iteration No. 1
Singular matrix:  Check node nc_02
   Iteration No. 2
Could not converge to DC with sources off!
Starting source stepping with srcstepmethod=0
Singular matrix:  Check node nc_02
   Iteration No. 1
Source Step = 3.0303%
Source Step = 33.3333%
Source Step = 63.6364%
Source Step = 93.9394%
Source stepping succeeded in finding the operating point.

Singular matrix:  Check node nc_02
   Iteration No. 1
Direct Newton iteration failed to find .op point.  (Use ".option noopiter" to skip.)
Starting Gmin stepping
Gmin = 10
Gmin = 1.07374
Gmin = 0.115292
Gmin = 0.0123794
Gmin = 0.00132923
Gmin = 0.000142725
Gmin = 1.5325e-005
Gmin = 1.6455e-006
Gmin = 1.76685e-007
Gmin = 1.89714e-008
Gmin = 2.03704e-009
Gmin = 2.18725e-010
Singular matrix:  Check node nc_02
   Iteration No. 2
Gmin = 0
Singular matrix:  Check node nc_02
   Iteration No. 1
Gmin stepping failed

Starting source stepping with srcstepmethod=0
Singular matrix:  Check node nc_02
   Iteration No. 1
Singular matrix:  Check node nc_02
   Iteration No. 2
Could not converge to DC with sources off!
Starting source stepping with srcstepmethod=1
Singular matrix:  Check node nc_02
   Iteration No. 1
Source Step = 3.0303%
Source Step = 33.3333%
Source Step = 63.6364%
Source Step = 93.9394%
Source stepping succeeded in finding the operating point.

Singular matrix:  Check node nc_02
   Iteration No. 1
Direct Newton iteration failed to find .op point.  (Use ".option noopiter" to skip.)
Starting Gmin stepping
Gmin = 10
Gmin = 1.07374
Gmin = 0.115292
Gmin = 0.0123794
Gmin = 0.00132923
Gmin = 0.000142725
Gmin = 1.5325e-005
Gmin = 1.6455e-006
Gmin = 1.76685e-007
Gmin = 1.89714e-008
Gmin = 2.03704e-009
Gmin = 2.18725e-010
Singular matrix:  Check node nc_02
   Iteration No. 2
Gmin = 0
Singular matrix:  Check node nc_02
   Iteration No. 1
Gmin stepping failed

Starting source stepping with srcstepmethod=1
Singular matrix:  Check node nc_02
   Iteration No. 1
Singular matrix:  Check node nc_02
   Iteration No. 2
Could not converge to DC with sources off!
Starting source stepping with srcstepmethod=0
Singular matrix:  Check node nc_02
   Iteration No. 1
Source Step = 3.0303%
Source Step = 33.3333%
Source Step = 63.6364%
Source Step = 93.9394%
Source stepping succeeded in finding the operating point.

Singular matrix:  Check node nc_02
   Iteration No. 1
Direct Newton iteration failed to find .op point.  (Use ".option noopiter" to skip.)
Starting Gmin stepping
Gmin = 10
Gmin = 1.07374
Gmin = 0.115292
Gmin = 0.0123794
Gmin = 0.00132923
Gmin = 0.000142725
Gmin = 1.5325e-005
Gmin = 1.6455e-006
Gmin = 1.76685e-007
Gmin = 1.89714e-008
Gmin = 2.03704e-009
Gmin = 2.18725e-010
Singular matrix:  Check node nc_02
   Iteration No. 2
Gmin = 0
Singular matrix:  Check node nc_02
   Iteration No. 1
Gmin stepping failed

Starting source stepping with srcstepmethod=0
Singular matrix:  Check node nc_02
   Iteration No. 1
Singular matrix:  Check node nc_02
   Iteration No. 2
Could not converge to DC with sources off!
Starting source stepping with srcstepmethod=1
Singular matrix:  Check node nc_02
   Iteration No. 1
Source Step = 3.0303%
Source Step = 33.3333%
Source Step = 63.6364%
Source Step = 93.9394%
Source stepping succeeded in finding the operating point.

Singular matrix:  Check node nc_02
   Iteration No. 1
Direct Newton iteration failed to find .op point.  (Use ".option noopiter" to skip.)
Starting Gmin stepping
Gmin = 10
Gmin = 1.07374
Gmin = 0.115292
Gmin = 0.0123794
Gmin = 0.00132923
Gmin = 0.000142725
Gmin = 1.5325e-005
Gmin = 1.6455e-006
Gmin = 1.76685e-007
Gmin = 1.89714e-008
Gmin = 2.03704e-009
Gmin = 2.18725e-010
Singular matrix:  Check node nc_02
   Iteration No. 2
Gmin = 0
Singular matrix:  Check node nc_02
   Iteration No. 1
Gmin stepping failed

Starting source stepping with srcstepmethod=1
Singular matrix:  Check node nc_02
   Iteration No. 1
Singular matrix:  Check node nc_02
   Iteration No. 2
Could not converge to DC with sources off!
Starting source stepping with srcstepmethod=0
Singular matrix:  Check node nc_02
   Iteration No. 1
Source Step = 3.0303%
Source Step = 33.3333%
Source Step = 63.6364%
Source Step = 93.9394%
Source stepping succeeded in finding the operating point.

Singular matrix:  Check node nc_02
   Iteration No. 1
Direct Newton iteration failed to find .op point.  (Use ".option noopiter" to skip.)
Starting Gmin stepping
Gmin = 10
Gmin = 1.07374
Gmin = 0.115292
Gmin = 0.0123794
Gmin = 0.00132923
Gmin = 0.000142725
Gmin = 1.5325e-005
Gmin = 1.6455e-006
Gmin = 1.76685e-007
Gmin = 1.89714e-008
Gmin = 2.03704e-009
Gmin = 2.18725e-010
Singular matrix:  Check node nc_02
   Iteration No. 2
Gmin = 0
Singular matrix:  Check node nc_02
   Iteration No. 1
Gmin stepping failed

Starting source stepping with srcstepmethod=0
Singular matrix:  Check node nc_02
   Iteration No. 1
Singular matrix:  Check node nc_02
   Iteration No. 2
Could not converge to DC with sources off!
Starting source stepping with srcstepmethod=1
Singular matrix:  Check node nc_02
   Iteration No. 1
Source Step = 3.0303%
Source Step = 33.3333%
Source Step = 63.6364%
Source Step = 93.9394%
Source stepping succeeded in finding the operating point.

Singular matrix:  Check node nc_02
   Iteration No. 1
Direct Newton iteration failed to find .op point.  (Use ".option noopiter" to skip.)
Starting Gmin stepping
Gmin = 10
Gmin = 1.07374
Gmin = 0.115292
Gmin = 0.0123794
Gmin = 0.00132923
Gmin = 0.000142725
Gmin = 1.5325e-005
Gmin = 1.6455e-006
Gmin = 1.76685e-007
Gmin = 1.89714e-008
Gmin = 2.03704e-009
Gmin = 2.18725e-010
Singular matrix:  Check node nc_02
   Iteration No. 2
Gmin = 0
Singular matrix:  Check node nc_02
   Iteration No. 1
Gmin stepping failed

Starting source stepping with srcstepmethod=1
Singular matrix:  Check node nc_02
   Iteration No. 1
Singular matrix:  Check node nc_02
   Iteration No. 2
Could not converge to DC with sources off!
Starting source stepping with srcstepmethod=0
Singular matrix:  Check node nc_02
   Iteration No. 1
Source Step = 3.0303%
Source Step = 33.3333%
Source Step = 63.6364%
Source Step = 93.9394%
Source stepping succeeded in finding the operating point.

Singular matrix:  Check node nc_02
   Iteration No. 1
Direct Newton iteration failed to find .op point.  (Use ".option noopiter" to skip.)
Starting Gmin stepping
Gmin = 10
Gmin = 1.07374
Gmin = 0.115292
Gmin = 0.0123794
Gmin = 0.00132923
Gmin = 0.000142725
Gmin = 1.5325e-005
Gmin = 1.6455e-006
Gmin = 1.76685e-007
Gmin = 1.89714e-008
Gmin = 2.03704e-009
Gmin = 2.18725e-010
Singular matrix:  Check node nc_02
   Iteration No. 2
Gmin = 0
Singular matrix:  Check node nc_02
   Iteration No. 1
Gmin stepping failed

Starting source stepping with srcstepmethod=0
Singular matrix:  Check node nc_02
   Iteration No. 1
Singular matrix:  Check node nc_02
   Iteration No. 2
Could not converge to DC with sources off!
Starting source stepping with srcstepmethod=1
Singular matrix:  Check node nc_02
   Iteration No. 1
Source Step = 3.0303%
Source Step = 33.3333%
Source Step = 63.6364%
Source Step = 93.9394%
Source stepping succeeded in finding the operating point.

Singular matrix:  Check node nc_02
   Iteration No. 1
Direct Newton iteration failed to find .op point.  (Use ".option noopiter" to skip.)
Starting Gmin stepping
Gmin = 10
Gmin = 1.07374
Gmin = 0.115292
Gmin = 0.0123794
Gmin = 0.00132923
Gmin = 0.000142725
Gmin = 1.5325e-005
Gmin = 1.6455e-006
Gmin = 1.76685e-007
Gmin = 1.89714e-008
Gmin = 2.03704e-009
Gmin = 2.18725e-010
Singular matrix:  Check node nc_02
   Iteration No. 2
Gmin = 0
Singular matrix:  Check node nc_02
   Iteration No. 1
Gmin stepping failed

Starting source stepping with srcstepmethod=1
Singular matrix:  Check node nc_02
   Iteration No. 1
Singular matrix:  Check node nc_02
   Iteration No. 2
Could not converge to DC with sources off!
Starting source stepping with srcstepmethod=0
Singular matrix:  Check node nc_02
   Iteration No. 1
Source Step = 3.0303%
Source Step = 33.3333%
Source Step = 63.6364%
Source Step = 93.9394%
Source stepping succeeded in finding the operating point.

Singular matrix:  Check node nc_02
   Iteration No. 1
Direct Newton iteration failed to find .op point.  (Use ".option noopiter" to skip.)
Starting Gmin stepping
Gmin = 10
Gmin = 1.07374
Gmin = 0.115292
Gmin = 0.0123794
Gmin = 0.00132923
Gmin = 0.000142725
Gmin = 1.5325e-005
Gmin = 1.6455e-006
Gmin = 1.76685e-007
Gmin = 1.89714e-008
Gmin = 2.03704e-009
Gmin = 2.18725e-010
Singular matrix:  Check node nc_02
   Iteration No. 2
Gmin = 0
Singular matrix:  Check node nc_02
   Iteration No. 1
Gmin stepping failed

Starting source stepping with srcstepmethod=0
Singular matrix:  Check node nc_02
   Iteration No. 1
Singular matrix:  Check node nc_02
   Iteration No. 2
Could not converge to DC with sources off!
Starting source stepping with srcstepmethod=1
Singular matrix:  Check node nc_02
   Iteration No. 1
Source Step = 3.0303%
Source Step = 33.3333%
Source Step = 63.6364%
Source Step = 93.9394%
Source stepping succeeded in finding the operating point.

Singular matrix:  Check node nc_02
   Iteration No. 1
Direct Newton iteration failed to find .op point.  (Use ".option noopiter" to skip.)
Starting Gmin stepping
Gmin = 10
Gmin = 1.07374
Gmin = 0.115292
Gmin = 0.0123794
Gmin = 0.00132923
Gmin = 0.000142725
Gmin = 1.5325e-005
Gmin = 1.6455e-006
Gmin = 1.76685e-007
Gmin = 1.89714e-008
Gmin = 2.03704e-009
Gmin = 2.18725e-010
Singular matrix:  Check node nc_02
   Iteration No. 2
Gmin = 0
Singular matrix:  Check node nc_02
   Iteration No. 1
Gmin stepping failed

Starting source stepping with srcstepmethod=1
Singular matrix:  Check node nc_02
   Iteration No. 1
Singular matrix:  Check node nc_02
   Iteration No. 2
Could not converge to DC with sources off!
Starting source stepping with srcstepmethod=0
Singular matrix:  Check node nc_02
   Iteration No. 1
Source Step = 3.0303%
Source Step = 33.3333%
Source Step = 63.6364%
Source Step = 93.9394%
Source stepping succeeded in finding the operating point.

Singular matrix:  Check node nc_02
   Iteration No. 1
Direct Newton iteration failed to find .op point.  (Use ".option noopiter" to skip.)
Starting Gmin stepping
Gmin = 10
Gmin = 1.07374
Gmin = 0.115292
Gmin = 0.0123794
Gmin = 0.00132923
Gmin = 0.000142725
Gmin = 1.5325e-005
Gmin = 1.6455e-006
Gmin = 1.76685e-007
Gmin = 1.89714e-008
Gmin = 2.03704e-009
Gmin = 2.18725e-010
Singular matrix:  Check node nc_02
   Iteration No. 2
Gmin = 0
Singular matrix:  Check node nc_02
   Iteration No. 1
Gmin stepping failed

Starting source stepping with srcstepmethod=0
Singular matrix:  Check node nc_02
   Iteration No. 1
Singular matrix:  Check node nc_02
   Iteration No. 2
Could not converge to DC with sources off!
Starting source stepping with srcstepmethod=1
Singular matrix:  Check node nc_02
   Iteration No. 1
Source Step = 3.0303%
Source Step = 33.3333%
Source Step = 63.6364%
Source Step = 93.9394%
Source stepping succeeded in finding the operating point.

Singular matrix:  Check node nc_02
   Iteration No. 1
Direct Newton iteration failed to find .op point.  (Use ".option noopiter" to skip.)
Starting Gmin stepping
Gmin = 10
Gmin = 1.07374
Gmin = 0.115292
Gmin = 0.0123794
Gmin = 0.00132923
Gmin = 0.000142725
Gmin = 1.5325e-005
Gmin = 1.6455e-006
Gmin = 1.76685e-007
Gmin = 1.89714e-008
Gmin = 2.03704e-009
Gmin = 2.18725e-010
Singular matrix:  Check node nc_02
   Iteration No. 2
Gmin = 0
Singular matrix:  Check node nc_02
   Iteration No. 1
Gmin stepping failed

Starting source stepping with srcstepmethod=1
Singular matrix:  Check node nc_02
   Iteration No. 1
Singular matrix:  Check node nc_02
   Iteration No. 2
Could not converge to DC with sources off!
Starting source stepping with srcstepmethod=0
Singular matrix:  Check node nc_02
   Iteration No. 1
Source Step = 3.0303%
Source Step = 33.3333%
Source Step = 63.6364%
Source Step = 93.9394%
Source stepping succeeded in finding the operating point.

Singular matrix:  Check node nc_02
   Iteration No. 1
Direct Newton iteration failed to find .op point.  (Use ".option noopiter" to skip.)
Starting Gmin stepping
Gmin = 10
Gmin = 1.07374
Gmin = 0.115292
Gmin = 0.0123794
Gmin = 0.00132923
Gmin = 0.000142725
Gmin = 1.5325e-005
Gmin = 1.6455e-006
Gmin = 1.76685e-007
Gmin = 1.89714e-008
Gmin = 2.03704e-009
Gmin = 2.18725e-010
Singular matrix:  Check node nc_02
   Iteration No. 2
Gmin = 0
Singular matrix:  Check node nc_02
   Iteration No. 1
Gmin stepping failed

Starting source stepping with srcstepmethod=0
Singular matrix:  Check node nc_02
   Iteration No. 1
Singular matrix:  Check node nc_02
   Iteration No. 2
Could not converge to DC with sources off!
Starting source stepping with srcstepmethod=1
Singular matrix:  Check node nc_02
   Iteration No. 1
Source Step = 3.0303%
Source Step = 33.3333%
Source Step = 63.6364%
Source Step = 93.9394%
Source stepping succeeded in finding the operating point.

Singular matrix:  Check node nc_02
   Iteration No. 1
Direct Newton iteration failed to find .op point.  (Use ".option noopiter" to skip.)
Starting Gmin stepping
Gmin = 10
Gmin = 1.07374
Gmin = 0.115292
Gmin = 0.0123794
Gmin = 0.00132923
Gmin = 0.000142725
Gmin = 1.5325e-005
Gmin = 1.6455e-006
Gmin = 1.76685e-007
Gmin = 1.89714e-008
Gmin = 2.03704e-009
Gmin = 2.18725e-010
Singular matrix:  Check node nc_02
   Iteration No. 2
Gmin = 0
Singular matrix:  Check node nc_02
   Iteration No. 1
Gmin stepping failed

Starting source stepping with srcstepmethod=1
Singular matrix:  Check node nc_02
   Iteration No. 1
Singular matrix:  Check node nc_02
   Iteration No. 2
Could not converge to DC with sources off!
Starting source stepping with srcstepmethod=0
Singular matrix:  Check node nc_02
   Iteration No. 1
Source Step = 3.0303%
Source Step = 33.3333%
Source Step = 63.6364%
Source Step = 93.9394%
Source stepping succeeded in finding the operating point.

Singular matrix:  Check node nc_02
   Iteration No. 1
Direct Newton iteration failed to find .op point.  (Use ".option noopiter" to skip.)
Starting Gmin stepping
Gmin = 10
Gmin = 1.07374
Gmin = 0.115292
Gmin = 0.0123794
Gmin = 0.00132923
Gmin = 0.000142725
Gmin = 1.5325e-005
Gmin = 1.6455e-006
Gmin = 1.76685e-007
Gmin = 1.89714e-008
Gmin = 2.03704e-009
Gmin = 2.18725e-010
Singular matrix:  Check node nc_02
   Iteration No. 2
Gmin = 0
Singular matrix:  Check node nc_02
   Iteration No. 1
Gmin stepping failed

Starting source stepping with srcstepmethod=0
Singular matrix:  Check node nc_02
   Iteration No. 1
Singular matrix:  Check node nc_02
   Iteration No. 2
Could not converge to DC with sources off!
Starting source stepping with srcstepmethod=1
Singular matrix:  Check node nc_02
   Iteration No. 1
Source Step = 3.0303%
Source Step = 33.3333%
Source Step = 63.6364%
Source Step = 93.9394%
Source stepping succeeded in finding the operating point.

Singular matrix:  Check node nc_02
   Iteration No. 1
Direct Newton iteration failed to find .op point.  (Use ".option noopiter" to skip.)
Starting Gmin stepping
Gmin = 10
Gmin = 1.07374
Gmin = 0.115292
Gmin = 0.0123794
Gmin = 0.00132923
Gmin = 0.000142725
Gmin = 1.5325e-005
Gmin = 1.6455e-006
Gmin = 1.76685e-007
Gmin = 1.89714e-008
Gmin = 2.03704e-009
Gmin = 2.18725e-010
Singular matrix:  Check node nc_02
   Iteration No. 2
Gmin = 0
Singular matrix:  Check node nc_02
   Iteration No. 1
Gmin stepping failed

Starting source stepping with srcstepmethod=1
Singular matrix:  Check node nc_02
   Iteration No. 1
Singular matrix:  Check node nc_02
   Iteration No. 2
Could not converge to DC with sources off!
Starting source stepping with srcstepmethod=0
Singular matrix:  Check node nc_02
   Iteration No. 1
Source Step = 3.0303%
Source Step = 33.3333%
Source Step = 63.6364%
Source Step = 93.9394%
Source stepping succeeded in finding the operating point.

Singular matrix:  Check node nc_02
   Iteration No. 1
Direct Newton iteration failed to find .op point.  (Use ".option noopiter" to skip.)
Starting Gmin stepping
Gmin = 10
Gmin = 1.07374
Gmin = 0.115292
Gmin = 0.0123794
Gmin = 0.00132923
Gmin = 0.000142725
Gmin = 1.5325e-005
Gmin = 1.6455e-006
Gmin = 1.76685e-007
Gmin = 1.89714e-008
Gmin = 2.03704e-009
Gmin = 2.18725e-010
Singular matrix:  Check node nc_02
   Iteration No. 2
Gmin = 0
Singular matrix:  Check node nc_02
   Iteration No. 1
Gmin stepping failed

Starting source stepping with srcstepmethod=0
Singular matrix:  Check node nc_02
   Iteration No. 1
Singular matrix:  Check node nc_02
   Iteration No. 2
Could not converge to DC with sources off!
Starting source stepping with srcstepmethod=1
Singular matrix:  Check node nc_02
   Iteration No. 1
Source Step = 3.0303%
Source Step = 33.3333%
Source Step = 63.6364%
Source Step = 93.9394%
Source stepping succeeded in finding the operating point.

.step re=1000
.step re=2000
.step re=3000
.step re=4000
.step re=5000

Date: Thu Feb 12 18:40:28 2015
Total elapsed time: 22.714 seconds.

tnom = 27
temp = 27
method = trap
totiter = 78308
traniter = 0
tranpoints = 0
accept = 0
rejected = 0
matrix size = 33
fillins = 17
solver = Normal
Matrix Compiler1: 2.81 KB object code size  1.2/0.7/[0.4]
Matrix Compiler2: 2.97 KB object code size  1.0/0.9/[0.9]


