Circuit: * Z:\media\data\CODES\LTspiceWorkspace\LTspice_projects\op_diskret\op_AS_S26_simple1.asc

Direct Newton iteration for .op point succeeded.

Date: Fri May 19 22:13:39 2017
Total elapsed time: 0.162 seconds.

tnom = 27
temp = 27
method = modified trap
totiter = 8074
traniter = 8032
tranpoints = 4017
accept = 2597
rejected = 1420
matrix size = 16
fillins = 20
solver = Alternate
Matrix Compiler1: 3.79 KB object code size  1.4/1.1/[0.8]
Matrix Compiler2: off  [0.7]/0.8/0.8

