Circuit: * Z:\home\mainster\CODES_local\LTSpice_projects\op_diskret\op_diskret_fet.asc

R1: both pins shorted together -- ignoring.
WARNING: Node N002 is floating.

WARNING: Less than two connections to node N008.  This node is used by V2.
Direct Newton iteration failed to find .op point.  (Use ".option noopiter" to skip.)
Starting Gmin stepping
Gmin = 10
Gmin = 1.07374
Gmin = 0.115292
Gmin = 0.0123794
Gmin = 0.00132923
Gmin = 0.000142725
Gmin = 1.5325e-005
Gmin = 1.6455e-006
Gmin = 1.76685e-007
Gmin = 1.89714e-008
Gmin = 2.03704e-009
Gmin = 2.18725e-010
vernier = 0.5
Gmin = 3.6696e-011
vernier = 0.666667
Gmin = 9.42154e-012
vernier = 0.888888
vernier = 1
Gmin = 1.24035e-012
vernier = 0.5
vernier = 0.25
vernier = 0.125
vernier = 0.0625
vernier = 0.03125
vernier = 0.015625
Gmin = 7.90735e-013
vernier = 0.0078125
vernier = 0.00390625
vernier = 0.00195313
vernier = 0.000976563
vernier = 0.000488281
Gmin = 0
Gmin stepping failed

Starting source stepping with srcstepmethod=0
Source Step = 3.0303%
Source Step = 33.3333%
Source Step = 63.6364%
Source Step = 93.9394%
Source stepping succeeded in finding the operating point.


Date: Sun Feb 15 05:06:59 2015
Total elapsed time: 13.389 seconds.

tnom = 27
temp = 27
method = modified trap
totiter = 1486083
traniter = 1483133
tranpoints = 369602
accept = 271696
rejected = 97906
matrix size = 23
fillins = 2
solver = Normal
Matrix Compiler1: 1.12 KB object code size  0.5/0.4/[0.3]
Matrix Compiler2: off  [0.5]/0.7/0.7


