Circuit: * C:\Program Files (x86)\LTC_ALL\LTspiceIV_4.18_multiLibs\examples\LTspiceWorldTour2011\BaseBandEye.asc

WARNING: Less than two connections to node N004.  This node is used by A1.
Direct Newton iteration for .op point succeeded.

Date: Mon Feb 09 12:02:54 2015
Total elapsed time: 0.588 seconds.

tnom = 27
temp = 27
method = modified trap
totiter = 48782
traniter = 48779
tranpoints = 14249
accept = 10496
rejected = 3753
matrix size = 7
fillins = 0
solver = Normal
Matrix Compiler1: 232 bytes object code size  0.2/0.2/[0.2]
Matrix Compiler2: 427 bytes object code size  0.2/0.2/[0.2]


