Circuit: * C:\Program Files (x86)\LTC_ALL\LTspiceIV_4.18_multiLibs\examples\LTspiceWorldTour2009\Analis&Aids\Param&Sparam\S-param.asc

WARNING: Node N003 is floating.
WARNING: Node N006 is floating.
WARNING: Node N007 is floating.
WARNING: Node N010 is floating.


Date: Mon Feb 09 11:50:58 2015
Total elapsed time: 0.024 seconds.

tnom = 27
temp = 27
method = trap
totiter = 0
traniter = 0
tranpoints = 0
accept = 0
rejected = 0
matrix size = 11
fillins = 0
solver = Normal

