Circuit: * C:\Program Files (x86)\LTC_ALL\LTspiceIV_4.18_multiLibs\examples\LTspiceWorldTour2009\Analis&Aids\dBm\dbm.asc

.OP point found by inspection.
.step a=0.5
.step a=1

Date: Mon Feb 09 11:55:05 2015
Total elapsed time: 5.621 seconds.

tnom = 27
temp = 27
method = modified trap
totiter = 506566
traniter = 506566
tranpoints = 159485
accept = 108763
rejected = 50722
matrix size = 22
fillins = 16
solver = Normal
Matrix Compiler1: 2.33 KB object code size  0.7/0.6/[0.4]
Matrix Compiler2: 2.05 KB object code size  0.6/0.5/[0.3]


