Circuit: * Z:\home\mainster\CODES_local\LTSpice_projects\hexDisplay\hexMDB.asc

WARNING: Less than two connections to node VM.  This node is used by VM.
WARNING: Less than two connections to node NTC.  This node is used by A71.
WARNING: Less than two connections to node NMC.  This node is used by A75.
WARNING: Less than two connections to node NBBC.  This node is used by A77.
WARNING: Less than two connections to node NTE.  This node is used by A34.
WARNING: Less than two connections to node NBE.  This node is used by A55.
Direct Newton iteration for .op point succeeded.

Date: Wed Feb 11 00:45:55 2015
Total elapsed time: 0.190 seconds.

tnom = 27
temp = 27
method = modified trap
totiter = 7338
traniter = 7331
tranpoints = 3371
accept = 2784
rejected = 587
matrix size = 62
fillins = 0
solver = Normal
Thread vector: 7.4/3.5[5] 2.3/2.2[1] 1.4/1.7[1] 0.3/1.0[1]  2592/500
Matrix Compiler1: 948 bytes object code size  0.8/0.5/[0.3]
Matrix Compiler2: 2.43 KB object code size  0.9/1.4/[0.4]


