Circuit: * C:\Program Files (x86)\LTC_ALL\LTspiceIV_4.18_multiLibs\examples\LTspice_cmosedu\035_ltspice\RonTestNMOS.asc

Warning: Pd = 0 is less than W.
Warning: Ps = 0 is less than W.
.step w=0.001
.step w=0.01
.step w=0.1

Date: Mon Feb 09 11:28:15 2015
Total elapsed time: 0.232 seconds.

tnom = 27
temp = 27
method = trap
totiter = 2004
traniter = 0
tranpoints = 0
accept = 0
rejected = 0
matrix size = 3
fillins = 0
solver = Normal
Matrix Compiler1: 50 bytes object code size  0.2/0.1/[0.1]
Matrix Compiler2: 175 bytes object code size  0.2/0.2/[0.1]


