Stray ".ends" card: .ends
Stray ".ends" card: .ends
Stray ".ends" card: .ends
Circuit: * Z:\home\koblitz\Simulationsbeispiele_SS15\elektronik_vor\e-folger-bootstrap.asc

Direct Newton iteration for .op point succeeded.

Date: Wed May 20 09:32:06 2015
Total elapsed time: 0.062 seconds.

tnom = 27
temp = 27
method = trap
totiter = 6
traniter = 0
tranpoints = 0
accept = 0
rejected = 0
matrix size = 9
fillins = 0
solver = Normal
Matrix Compiler1:      25 opcodes
Matrix Compiler2: 695 Bytes object code size

