Circuit: * Z:\home\koblitz\Simulationsbeispiele_SS15\elektronik_vor\gleichrichter.asc

Direct Newton iteration for .op point succeeded.

Date: Mon Apr 13 10:32:38 2015
Total elapsed time: 0.217 seconds.

tnom = 27
temp = 27
method = modified trap
totiter = 2220
traniter = 2205
tranpoints = 1089
accept = 1078
rejected = 11
matrix size = 9
fillins = 0
solver = Normal
Matrix Compiler1: 296 Bytes object code size  2.1/2.1/[1.8]
Matrix Compiler2: off  [1.9]/2.2/2.8


