Circuit: * Z:\home\koblitz\Simulationsbeispiele_SS15\elektronik_vor\L-ersatz.asc

Per .tran options, skipping operating point for transient analysis.
Ignoring empty pin current: Ix(u1:inp)
Ignoring empty pin current: Ix(u1:inm)

Date: Thu Apr 23 10:15:32 2015
Total elapsed time: 0.597 seconds.

tnom = 27
temp = 27
method = modified trap
totiter = 49458
traniter = 49458
tranpoints = 13355
accept = 9353
rejected = 4002
matrix size = 17
fillins = 3
solver = Normal
Matrix Compiler1: 668 Bytes object code size  2.6/2.4/[1.7]
Matrix Compiler2: 1,17 KB object code size  2.3/2.7/[2.0]


