Stray ".ends" card: .ends
Stray ".ends" card: .ends
Stray ".ends" card: .ends
Circuit: * Z:\home\koblitz\Simulationsbeispiele_SS15\elektronik_vor\q1-aussteuergrenze.asc

Direct Newton iteration for .op point succeeded.

Date: Mon May 11 11:20:18 2015
Total elapsed time: 0.184 seconds.

tnom = 27
temp = 27
method = modified trap
totiter = 2106
traniter = 2099
tranpoints = 1042
accept = 1042
rejected = 0
matrix size = 8
fillins = 0
solver = Normal
Matrix Compiler1: off  [1.4]/1.5/1.6
Matrix Compiler2: off  [1.3]/1.8/1.9


