Stray ".ends" card: .ends
Stray ".ends" card: .ends
Stray ".ends" card: .ends
Circuit: * Z:\home\koblitz\Simulationsbeispiele_SS15\elektronik_vor\q1-basis.asc

Direct Newton iteration for .op point succeeded.

Date: Wed Apr 29 09:00:49 2015
Total elapsed time: 0.082 seconds.

tnom = 27
temp = 27
method = trap
totiter = 8
traniter = 0
tranpoints = 0
accept = 0
rejected = 0
matrix size = 10
fillins = 0
solver = Normal
Matrix Compiler1:      18 opcodes
Matrix Compiler2: 658 Bytes object code size

