Stray ".ends" card: .ends
Stray ".ends" card: .ends
Stray ".ends" card: .ends
Circuit: * Z:\home\koblitz\Simulationsbeispiele_SS15\elektronik_vor\q1-e-schaltung-rb-aussteuerung.asc

Direct Newton iteration for .op point succeeded.
Heightened Def Con from 1.95313e-011 to 2.01953e-009

Date: Mon May 11 10:35:24 2015
Total elapsed time: 0.115 seconds.

tnom = 27
temp = 27
method = modified trap
totiter = 2290
traniter = 2283
tranpoints = 1065
accept = 1046
rejected = 20
matrix size = 8
fillins = 0
solver = Normal
Matrix Compiler1: 246 Bytes object code size  1.9/1.8/[1.8]
Matrix Compiler2: off  [1.7]/2.2/2.2


