Circuit: * Z:\home\koblitz\Simulationsbeispiele_SS15\elektronik_vor\quartz-oscillator-mit-inverter.asc

Warning: Multiple definitions of model "fds6680" Type: Vdmos1
Per .tran options, skipping operating point for transient analysis.

Date: Thu Jun 25 11:27:04 2015
Total elapsed time: 1.720 seconds.

tnom = 27
temp = 27
method = modified trap
totiter = 169810
traniter = 169810
tranpoints = 48450
accept = 34986
rejected = 13464
matrix size = 5
fillins = 0
solver = Normal
Matrix Compiler1: 186 Bytes object code size  2.0/2.1/[1.6]
Matrix Compiler2: 389 Bytes object code size  1.8/2.1/[1.8]


