Stray ".ends" card: .ends
Stray ".ends" card: .ends
Stray ".ends" card: .ends
Circuit: * Z:\home\koblitz\Simulationsbeispiele_SS15\elektronik_vor\verst-q1_re.asc

Direct Newton iteration for .op point succeeded.

Date: Mon Apr 27 10:34:01 2015
Total elapsed time: 0.090 seconds.

tnom = 27
temp = 27
method = trap
totiter = 8
traniter = 0
tranpoints = 0
accept = 0
rejected = 0
matrix size = 12
fillins = 0
solver = Normal
Matrix Compiler1:      36 opcodes
Matrix Compiler2: 920 Bytes object code size

