Circuit: * Z:\home\koblitz\Simulationsbeispiele_SS15\elektronik_vor\verst_mos-wie-T1.asc

Warning: Multiple definitions of model "fds6680" Type: Vdmos1
Direct Newton iteration for .op point succeeded.

Date: Mon Jun 15 10:48:58 2015
Total elapsed time: 0.094 seconds.

tnom = 27
temp = 27
method = trap
totiter = 7
traniter = 0
tranpoints = 0
accept = 0
rejected = 0
matrix size = 8
fillins = 0
solver = Normal
Matrix Compiler1:      15 opcodes
Matrix Compiler2: 526 Bytes object code size

