Circuit: * C:\Program Files (x86)\LTC_ALL\LTspiceIV_4.18_multiLibs\examples\LTspiceWorldTour2009\Analis&Aids\B_Vs_H\bh.asc

WARNING: Node VB is floating.

.OP point found by inspection.

Date: Mon Feb 09 11:53:50 2015
Total elapsed time: 0.079 seconds.

tnom = 27
temp = 27
method = modified trap
totiter = 9932
traniter = 9932
tranpoints = 4966
accept = 4965
rejected = 1
matrix size = 3
fillins = 0
solver = Normal
Matrix Compiler1: 86 bytes object code size  0.2/0.2/[0.2]
Matrix Compiler2: 169 bytes object code size  0.2/0.2/[0.2]


