Circuit: * Z:\home\mainster\CODES_local\LTSpice_projects\noise_snr\noise_snr.asc

R2: both pins shorted together -- ignoring.
WARNING: Less than two connections to node O4.  This node is used by R6.
.step x=11
.step x=13.8482
.step x=17.4338
.step x=21.9479
.step x=27.6308
.step x=34.7851
.step x=43.7918
.step x=55.1306
.step x=69.4053
.step x=87.3761
.step x=110
.step x=138.482
.step x=174.338
.step x=219.479
.step x=276.308
.step x=347.851
.step x=437.918
.step x=551.306
.step x=694.053
.step x=873.761
.step x=1100
.step x=1384.82
.step x=1743.38
.step x=2194.79
.step x=2763.08
.step x=3478.51
.step x=4379.18
.step x=5513.06
.step x=6940.53
.step x=8737.61
.step x=11000
.step x=13848.2
.step x=17433.8
.step x=21947.9
.step x=27630.8
.step x=34785.1
.step x=43791.8
.step x=55130.6
.step x=69405.3
.step x=87376.1
.step x=110000
.step x=138482
.step x=174338
.step x=219479
.step x=276308
.step x=347851
.step x=437918
.step x=551306
.step x=694053
.step x=873761
.step x=1.1e+006
.step x=1.38482e+006
.step x=1.74338e+006
.step x=2.19479e+006
.step x=2.76308e+006
.step x=3.47851e+006
.step x=4.37918e+006
.step x=5.51306e+006
.step x=6.94053e+006
.step x=8.73761e+006
.step x=1e+007


Measurement: ns
  step	INTEG(v(onoise))	FROM	TO
     1	3.54672e-009	10	11
     2	6.95753e-009	10	13.8482
     3	9.67015e-009	10	17.4338
     4	1.22595e-008	10	21.9479
     5	1.48923e-008	10	27.6308
     6	1.76572e-008	10	34.7851
     7	2.06173e-008	10	43.7918
     8	2.38266e-008	10	55.1306
     9	2.73362e-008	10	69.4053
    10	3.11982e-008	10	87.3761
    11	3.5467e-008	10	110
    12	4.02017e-008	10	138.482
    13	4.54664e-008	10	174.338
    14	5.1332e-008	10	219.479
    15	5.78768e-008	10	276.308
    16	6.51879e-008	10	347.851
    17	7.33621e-008	10	437.918
    18	8.25072e-008	10	551.306
    19	9.27434e-008	10	694.053
    20	1.04204e-007	10	873.761
    21	1.17035e-007	10	1100
    22	1.31401e-007	10	1384.82
    23	1.47474e-007	10	1743.38
    24	1.65444e-007	10	2194.79
    25	1.85501e-007	10	2763.08
    26	2.07829e-007	10	3478.51
    27	2.32585e-007	10	4379.18
    28	2.59857e-007	10	5513.06
    29	2.89611e-007	10	6940.53
    30	3.21613e-007	10	8737.61
    31	3.5534e-007	10	11000
    32	3.89923e-007	10	13848.2
    33	4.24183e-007	10	17433.8
    34	4.56798e-007	10	21947.9
    35	4.86583e-007	10	27630.8
    36	5.12741e-007	10	34785.1
    37	5.34965e-007	10	43791.8
    38	5.53372e-007	10	55130.6
    39	5.68345e-007	10	69405.3
    40	5.80381e-007	10	87376.1
    41	5.89985e-007	10	110000
    42	5.97616e-007	10	138482
    43	6.03666e-007	10	174338
    44	6.08457e-007	10	219479
    45	6.12251e-007	10	276308
    46	6.15255e-007	10	347851
    47	6.17635e-007	10	437918
    48	6.1952e-007	10	551306
    49	6.21015e-007	10	694053
    50	6.222e-007	10	873761
    51	6.2314e-007	10	1.1e+006
    52	6.23885e-007	10	1.38482e+006
    53	6.24477e-007	10	1.74338e+006
    54	6.24947e-007	10	2.19479e+006
    55	6.2532e-007	10	2.76308e+006
    56	6.25616e-007	10	3.47851e+006
    57	6.25851e-007	10	4.37918e+006
    58	6.26037e-007	10	5.51306e+006
    59	6.26186e-007	10	6.94053e+006
    60	6.26303e-007	10	8.73761e+006
    61	6.26361e-007	10	1e+007

Measurement: snr
  step	-20*log10(ns)
     1	169.003
     2	163.151
     3	160.291
     4	158.231
     5	156.541
     6	155.062
     7	153.715
     8	152.459
     9	151.265
    10	150.117
    11	149.004
    12	147.915
    13	146.846
    14	145.792
    15	144.75
    16	143.717
    17	142.691
    18	141.67
    19	140.654
    20	139.642
    21	138.634
    22	137.628
    23	136.626
    24	135.627
    25	134.633
    26	133.646
    27	132.668
    28	131.705
    29	130.764
    30	129.853
    31	128.987
    32	128.18
    33	127.449
    34	126.806
    35	126.257
    36	125.802
    37	125.433
    38	125.14
    39	124.908
    40	124.726
    41	124.583
    42	124.472
    43	124.384
    44	124.315
    45	124.261
    46	124.219
    47	124.185
    48	124.159
    49	124.138
    50	124.121
    51	124.108
    52	124.098
    53	124.09
    54	124.083
    55	124.078
    56	124.074
    57	124.071
    58	124.068
    59	124.066
    60	124.064
    61	124.064


Date: Wed Jun 24 08:01:43 2015
Total elapsed time: 2.101 seconds.

tnom = 27
temp = 20
method = trap
totiter = 0
traniter = 0
tranpoints = 0
accept = 0
rejected = 0
matrix size = 9
fillins = 0
solver = Normal

