Circuit: * Z:\media\data\CODES\LTspiceWorkspace\LTspice_projects\EMV\kapaz_kopplung.asc


Date: Mon May 08 12:23:37 2017
Total elapsed time: 0.034 seconds.

tnom = 27
temp = 27
method = trap
totiter = 0
traniter = 0
tranpoints = 0
accept = 0
rejected = 0
matrix size = 4
fillins = 0
solver = Alternate

