Circuit: * C:\Program Files (x86)\LTC_ALL\LTspiceIV_4.18_multiLibs\examples\LtSpicePlus\Discretos\Mos&Fet\TestCircuitsPlotingDatasheetGraphs\nmos_model_transfer.asc

Direct Newton iteration for .op point succeeded.

Date: Mon Feb 09 11:37:48 2015
Total elapsed time: 0.050 seconds.

tnom = 27
temp = 27
method = modified trap
totiter = 2096
traniter = 2088
tranpoints = 1045
accept = 1045
rejected = 0
matrix size = 8
fillins = 0
solver = Normal
Matrix Compiler1: 326 bytes object code size  0.3/0.3/[0.3]
Matrix Compiler2: 554 bytes object code size  0.3/0.3/[0.3]


