Circuit: * C:\Program Files (x86)\LTC_ALL\LTspiceIV_4.18_multiLibs\examples\LtSpicePlus\Discretos\Mos&Fet\TestCircuitsPlotingDatasheetGraphs\nmos_model_rdson.asc

Direct Newton iteration for .op point succeeded.

Date: Mon Feb 09 11:37:45 2015
Total elapsed time: 0.051 seconds.

tnom = 27
temp = 27
method = modified trap
totiter = 2102
traniter = 2094
tranpoints = 1045
accept = 1045
rejected = 0
matrix size = 7
fillins = 0
solver = Normal
Matrix Compiler1: 330 bytes object code size  0.2/0.2/[0.2]
Matrix Compiler2: off  [0.2]/0.2/0.2


