Circuit: * C:\Program Files (x86)\LTC_ALL\LTspiceIV_4.18_multiLibs\examples\LtSpicePlus\Discretos\Mos&Fet\TestCircuitsPlotingDatasheetGraphs\nmos_model_qg.asc

WARNING: Less than two connections to node QG.  This node is used by B1.
Direct Newton iteration for .op point succeeded.
Heightened Def Con from 3.021e-013 to 3.0003e-009

Date: Mon Feb 09 11:37:53 2015
Total elapsed time: 0.065 seconds.

tnom = 27
temp = 27
method = modified trap
totiter = 3539
traniter = 3531
tranpoints = 1135
accept = 1103
rejected = 33
matrix size = 11
fillins = 1
solver = Normal
Matrix Compiler1: 476 bytes object code size  0.4/0.2/[0.2]
Matrix Compiler2: 733 bytes object code size  0.2/0.3/[0.2]


