Circuit: * C:\Program Files (x86)\LTC_ALL\LTspiceIV_4.18_multiLibs\examples\LtSpicePlus\Discretos\Mos&Fet\TestCircuitsPlotingDatasheetGraphs\parameter extraction.asc

WARNING: Less than two connections to node RD.  This node is used by B2.
.step rdson=0.02
.OP point found by inspection.
.step rdson=0.025
.step rdson=0.03
.step rdson=0.035
.step rdson=0.04
.step rdson=0.045
.step rdson=0.05

Date: Mon Feb 09 11:37:48 2015
Total elapsed time: 0.758 seconds.

tnom = 27
temp = 27
method = trap
totiter = 4
traniter = 0
tranpoints = 0
accept = 0
rejected = 0
matrix size = 4
fillins = 0
solver = Normal
Matrix Compiler1: 64 bytes object code size
Matrix Compiler2: 174 bytes object code size

