Circuit: * Z:\home\koblitz\Simulationsbeispiele_WS14\Elektronik_Lab\mittwoch\beta-kennlininie3.asc

.step temp=0°C
.step temp=50°C
.step temp=100°C

Date: Wed Oct 29 15:41:43 2014
Total elapsed time: 0.064 seconds.

tnom = 27
temp = 100
method = trap
totiter = 416
traniter = 0
tranpoints = 0
accept = 0
rejected = 0
matrix size = 6
fillins = 0
solver = Normal
Matrix Compiler1: 284 Bytes object code size  1.6/1.6/[1.3]
Matrix Compiler2: 414 Bytes object code size  1.7/1.8/[1.4]


