Circuit: * Z:\home\koblitz\Simulationsbeispiele_WS14\Elektronik_Lab\mittwoch\diff_a4.asc

Direct Newton iteration for .op point succeeded.
.step i0=0.0001
.step i0=0.0002
.step i0=0.0004
.step i0=0.0006
.step i0=0.0008
.step i0=0.001

Date: Wed Nov 19 16:10:26 2014
Total elapsed time: 0.506 seconds.

tnom = 27
temp = 27
method = modified trap
totiter = 2090
traniter = 2082
tranpoints = 1042
accept = 1042
rejected = 0
matrix size = 11
fillins = 0
solver = Normal
Matrix Compiler1: 574 Bytes object code size  1.8/1.8/[1.6]
Matrix Compiler2: off  [1.5]/2.1/2.0


