Circuit: * Z:\home\koblitz\Simulationsbeispiele_WS14\Elektronik_Lab\mittwoch\diff_a3.asc

.step vplus=5
.step vplus=6
.step vplus=7
.step vplus=8
.step vplus=9
.step vplus=10

Date: Wed Dec 03 17:40:48 2014
Total elapsed time: 0.247 seconds.

tnom = 27
temp = 27
method = trap
totiter = 199
traniter = 0
tranpoints = 0
accept = 0
rejected = 0
matrix size = 15
fillins = 0
solver = Normal
Matrix Compiler1: 952 Bytes object code size  2.1/2.0/[1.6]
Matrix Compiler2: off  [1.8]/2.1/1.9


