Circuit: * Z:\home\koblitz\Simulationsbeispiele_WS14\Elektronik_Lab\mittwoch\diode_temp.asc


Date: Wed Oct 15 15:04:37 2014
Total elapsed time: 0.056 seconds.

tnom = 27
temp = 105
method = trap
totiter = 51
traniter = 0
tranpoints = 0
accept = 0
rejected = 0
matrix size = 1
fillins = 0
solver = Normal
Matrix Compiler1: off
Matrix Compiler2: 43 Bytes object code size

