Circuit: * Z:\home\koblitz\Simulationsbeispiele_WS14\Elektronik_Lab\mittwoch\poti_belastet.asc

.step last=100
Direct Newton iteration for .op point succeeded.
.step last=200
.step last=300
.step last=500
.step last=1000
.step last=1e+009

Date: Wed Oct 15 16:18:32 2014
Total elapsed time: 15.717 seconds.

tnom = 27
temp = 27
method = trap
totiter = 3
traniter = 0
tranpoints = 0
accept = 0
rejected = 0
matrix size = 3
fillins = 0
solver = Normal
Matrix Compiler1: 86 Bytes object code size
Matrix Compiler2: 163 Bytes object code size

