Stray ".ends" card: .ends
Stray ".ends" card: .ends
Stray ".ends" card: .ends
Circuit: * Z:\home\koblitz\Simulationsbeispiele_WS14\Elektronik_Lab\mittwoch\Q1-ausgangskennlinie.asc

.step i1=0
.step i1=1e-005
.step i1=2e-005
.step i1=3e-005
.step i1=4e-005
.step i1=5e-005

Date: Wed Oct 15 15:54:16 2014
Total elapsed time: 0.700 seconds.

tnom = 27
temp = 27
method = trap
totiter = 2008
traniter = 0
tranpoints = 0
accept = 0
rejected = 0
matrix size = 6
fillins = 0
solver = Normal
Matrix Compiler1: off  [1.2]/1.5/1.7
Matrix Compiler2: 462 Bytes object code size  1.7/1.8/[1.7]


