Stray ".ends" card: .ends
Stray ".ends" card: .ends
Stray ".ends" card: .ends
Circuit: * Z:\home\koblitz\Simulationsbeispiele_WS14\Elektronik_Lab\mittwoch\T1-1_4.asc


Date: Wed Dec 03 15:29:25 2014
Total elapsed time: 0.051 seconds.

tnom = 27
temp = 27
method = trap
totiter = 321
traniter = 0
tranpoints = 0
accept = 0
rejected = 0
matrix size = 12
fillins = 0
solver = Normal
Matrix Compiler1: 686 Bytes object code size  2.4/2.3/[2.0]
Matrix Compiler2: off  [1.9]/2.3/2.0


