Stray ".ends" card: .ends
Stray ".ends" card: .ends
Stray ".ends" card: .ends
Circuit: * Z:\home\koblitz\Simulationsbeispiele_WS14\Elektronik_Lab\mittwoch\T1-2.asc

Direct Newton iteration for .op point succeeded.
.step c2=1e-008
.step c2=1e-007
.step c2=1e-006
.step c2=1e-005
.step c2=0.0001
.step c2=0.001

Date: Wed Dec 03 16:00:47 2014
Total elapsed time: 0.230 seconds.

tnom = 27
temp = 27
method = trap
totiter = 7
traniter = 0
tranpoints = 0
accept = 0
rejected = 0
matrix size = 12
fillins = 0
solver = Normal
Matrix Compiler1:      39 opcodes
Matrix Compiler2: 920 Bytes object code size

