Circuit: * Z:\home\koblitz\Simulationsbeispiele_WS14\Elektronik_Lab\mittwoch\tiefpass.asc

.OP point found by inspection.

Date: Wed Oct 08 16:02:48 2014
Total elapsed time: 2.549 seconds.

tnom = 27
temp = 27
method = modified trap
totiter = 327018
traniter = 327018
tranpoints = 163510
accept = 135001
rejected = 28509
matrix size = 3
fillins = 0
solver = Normal
Matrix Compiler1:       3 opcodes  1.3/[1.3]/1.4
Matrix Compiler2: off  [1.3]/1.4/1.5


