Stray ".ends" card: .ends
Stray ".ends" card: .ends
Stray ".ends" card: .ends
Circuit: * Z:\home\koblitz\Simulationsbeispiele_WS14\Elektronik_Lab\mittwoch\UK_17.asc


Date: Wed Oct 22 16:27:14 2014
Total elapsed time: 0.078 seconds.

tnom = 27
temp = 27
method = trap
totiter = 339
traniter = 0
tranpoints = 0
accept = 0
rejected = 0
matrix size = 10
fillins = 0
solver = Normal
Matrix Compiler1: 506 Bytes object code size  2.1/2.2/[1.8]
Matrix Compiler2: 740 Bytes object code size  1.8/2.3/[1.9]


