Circuit: * C:\Program Files (x86)\LTC_ALL\LTspiceIV_4.18_multiLibs\examples\LtSpicePlus\Digital\A_Devices\Counters\OprescuCounter\OprescuCount.asc

WARNING: Node CINT is floating.

WARNING: Less than two connections to node OUTCOUNT.  This node is used by E:XCOUNTER:OUT.
Direct Newton iteration for .op point succeeded.
Heightened Def Con from 0.000105823 to 0.000105823

Date: Mon Feb 09 11:31:23 2015
Total elapsed time: 5.895 seconds.

tnom = 27
temp = 27
method = modified trap
totiter = 301168
traniter = 301158
tranpoints = 125425
accept = 118633
rejected = 6793
matrix size = 42
fillins = 0
solver = Normal
Matrix Compiler1: 1000 bytes object code size  0.6/0.4/[0.3]
Matrix Compiler2: 2.25 KB object code size  0.5/0.7/[0.3]


