Circuit: * Z:\home\mainster\CODES_local\LTSpice_projects\h-bridge\Draft3.asc

Direct Newton iteration for .op point succeeded.

Date: Sat Sep 05 00:46:29 2015
Total elapsed time: 0.046 seconds.

tnom = 27
temp = 27
method = modified trap
totiter = 3751
traniter = 3748
tranpoints = 1875
accept = 1368
rejected = 507
matrix size = 2
fillins = 0
solver = Normal
Matrix Compiler1:       3 opcodes  0.2/[0.1]/0.1
Matrix Compiler2: 116 bytes object code size  0.2/0.1/[0.1]


