Circuit: * Z:\home\mainster\CODES_local\LTSpice_projects\h-bridge\h-bridge.asc

Direct Newton iteration failed to find .op point.  (Use ".option noopiter" to skip.)
Starting Gmin stepping
Gmin = 10
Gmin = 1.07374
Gmin = 0.115292
Gmin = 0.0123794
Gmin = 0.00132923
Gmin = 0.000142725
Gmin = 1.5325e-005
Gmin = 1.6455e-006
Gmin = 1.76685e-007
Gmin = 1.89714e-008
Gmin = 2.03704e-009
Gmin = 2.18725e-010
Gmin = 2.34854e-011
Gmin = 2.52173e-012
vernier = 0.5
vernier = 0.25
Gmin = 8.64125e-013
vernier = 0.125
vernier = 0.0625
vernier = 0.03125
Gmin = 8.12307e-013
vernier = 0.0416667
vernier = 0.0208333
vernier = 0.0104167
Gmin = 7.81306e-013
vernier = 0.00520833
vernier = 0.00260417
Gmin = 7.77755e-013
vernier = 0.00347222
vernier = 0.00173611
vernier = 0.00231481
Gmin = 7.74276e-013
vernier = 0.00115741
vernier = 0.000578703
vernier = 0.000434027
Gmin = 0
Gmin stepping succeeded in finding the operating point.

Heightened Def Con from 1.00451e-005 to 1.00463e-005
Heightened Def Con from 1.00535e-005 to 1.00536e-005
Heightened Def Con from 1.00628e-005 to 1.00658e-005
Heightened Def Con from 1.00871e-005 to 1.00873e-005
Heightened Def Con from 1.00875e-005 to 1.00905e-005
Heightened Def Con from 1.00933e-005 to 1.00933e-005
Heightened Def Con from 1.00938e-005 to 1.00958e-005
Heightened Def Con from 1.01004e-005 to 1.01015e-005
Heightened Def Con from 1.01024e-005 to 1.01036e-005
Heightened Def Con from 1.0104e-005 to 1.01052e-005
Heightened Def Con from 1.01138e-005 to 1.01148e-005
Heightened Def Con from 1.02029e-005 to 1.02059e-005
Heightened Def Con from 1.02154e-005 to 1.02165e-005
Heightened Def Con from 1.02567e-005 to 1.02588e-005
Heightened Def Con from 1.02591e-005 to 1.02602e-005
Heightened Def Con from 1.02778e-005 to 1.02808e-005
Heightened Def Con from 1.03011e-005 to 1.03012e-005
Heightened Def Con from 1.0318e-005 to 1.03181e-005
Heightened Def Con from 1.03326e-005 to 1.03337e-005
Heightened Def Con from 1.0355e-005 to 1.0357e-005
Heightened Def Con from 1.03802e-005 to 1.03812e-005
Heightened Def Con from 1.03861e-005 to 1.03881e-005
Heightened Def Con from 1.03901e-005 to 1.03901e-005
Heightened Def Con from 1.03901e-005 to 1.03921e-005
Heightened Def Con from 1.03978e-005 to 1.03998e-005
Heightened Def Con from 1.04702e-005 to 1.04712e-005
Heightened Def Con from 1.04714e-005 to 1.04715e-005
Heightened Def Con from 1.04718e-005 to 1.04728e-005
Heightened Def Con from 1.04745e-005 to 1.04747e-005
Heightened Def Con from 1.04858e-005 to 1.0487e-005
Heightened Def Con from 1.05823e-005 to 1.05823e-005
Heightened Def Con from 1.06213e-005 to 1.06214e-005
Heightened Def Con from 1.06284e-005 to 1.06294e-005
Heightened Def Con from 1.06311e-005 to 1.06313e-005
Heightened Def Con from 1.06454e-005 to 1.06474e-005
Heightened Def Con from 1.06545e-005 to 1.06555e-005
Heightened Def Con from 1.07213e-005 to 1.07223e-005
Heightened Def Con from 1.0723e-005 to 1.07232e-005
Heightened Def Con from 1.07262e-005 to 1.07272e-005
Heightened Def Con from 1.07368e-005 to 1.07388e-005
Heightened Def Con from 1.07408e-005 to 1.07428e-005
Heightened Def Con from 1.07431e-005 to 1.07432e-005
Heightened Def Con from 1.07448e-005 to 1.07459e-005
Heightened Def Con from 1.07463e-005 to 1.07473e-005
Heightened Def Con from 1.07765e-005 to 1.07785e-005
Heightened Def Con from 1.07802e-005 to 1.07802e-005
Heightened Def Con from 1.07804e-005 ++to 1.07816e-005
Heightened Def Con from 1.07886e-005 to 1.07896e-005
Heightened Def Con from 1.08489e-005 +to 1.08509e-005
Heightened Def Con from 1.08537e-005 to 1.08547e-005
Heightened Def Con from 1.08924e-005 to 1.08944e-005
Heightened Def Con from 1.08969e-005 to 1.0897e-005
Heightened Def Con from 1.08974e-005 to 1.08976e-005
Heightened Def Con from 1.09011e-005 to 1.09021e-005
Heightened Def Con from 1.09041e-005 +to 1.09051e-005
Heightened Def Con from 1.09262e-005 to 1.09282e-005
Heightened Def Con from 1.09397e-005 to 1.09417e-005
Heightened Def Con from 1.09437e-005 to 1.09438e-005
Heightened Def Con from 1.09443e-005 to 1.09444e-005
Heightened Def Con from 1.09445e-005 to 1.09465e-005
Heightened Def Con from 1.09742e-005 to 1.09743e-005
Heightened Def Con from 1.09837e-005 to 1.09838e-005
Heightened Def Con from 1.09875e-005 to 1.09885e-005
Heightened Def Con from 1.11244e-005 to 1.11244e-005
Heightened Def Con from 1.11244e-005 to 1.11245e-005
Heightened Def Con from 1.11361e-005 to 1.11371e-005
Heightened Def Con from 1.11389e-005 to 1.11389e-005
Heightened Def Con from 1.1164e-005 to 1.1165e-005
Heightened Def Con from 1.1168e-005 to 1.1169e-005
Heightened Def Con from 1.11693e-005 to 1.11713e-005
Heightened Def Con from 1.11858e-005 to 1.11868e-005
Heightened Def Con from 1.12062e-005 to 1.12072e-005
Heightened Def Con from 1.12295e-005 to 1.12315e-005
Heightened Def Con from 1.12337e-005 to 1.12348e-005
Heightened Def Con from 1.12351e-005 to 1.12352e-005
Heightened Def Con from 1.12731e-005 to 1.12741e-005
Heightened Def Con from 1.12811e-005 to 1.12813e-005
Heightened Def Con from 1.13545e-005 to 1.13555e-005
Heightened Def Con from 1.13594e-005 to 1.13614e-005
Heightened Def Con from 1.13614e-005 to 1.13616e-005
Heightened Def Con from 1.13641e-005 to 1.13651e-005
Heightened Def Con from 1.13676e-005 to 1.13677e-005
Heightened Def Con from 1.13681e-005 to 1.13701e-005
Heightened Def Con from 1.15831e-005 to 1.15841e-005
Heightened Def Con from 1.15844e-005 to 1.15854e-005
Heightened Def Con from 1.16088e-005 to 1.16098e-005
Heightened Def Con from 1.16258e-005 to 1.16259e-005
Heightened Def Con from 1.16268e-005 to 1.16278e-005
Heightened Def Con from 1.1769e-005 to 1.17692e-005
Heightened Def Con from 1.17718e-005 to 1.17728e-005
Heightened Def Con from 1.17737e-005 to 1.17738e-005
Heightened Def Con from 1.17738e-005 to 1.17739e-005
Heightened Def Con from 1.17818e-005 to 1.17828e-005
Heightened Def Con from 1.17829e-005 to 1.1783e-005
Heightened Def Con from 1.17839e-005 to 1.1784e-005
Heightened Def Con from 1.17911e-005 to 1.17913e-005
Heightened Def Con from 1.17917e-005 to 1.17917e-005
Heightened Def Con from 1.18573e-005 to 1.18583e-005
Heightened Def Con from 1.18585e-005 to 1.18605e-005
Heightened Def Con from 1.18962e-005 to 1.18972e-005
Heightened Def Con from 1.19094e-005 to 1.19094e-005
Heightened Def Con from 1.191e-005 to 1.1912e-005
Heightened Def Con from 1.19349e-005 to 1.1936e-005
Heightened Def Con from 1.20125e-005 to 1.20135e-005
Heightened Def Con from 1.20327e-005 to 1.20329e-005
Heightened Def Con from 1.20337e-005 to 1.20347e-005
Heightened Def Con from 1.20347e-005 to 1.20358e-005
Heightened Def Con from 1.20666e-005 to 1.20686e-005
Heightened Def Con from 1.20707e-005 to 1.20717e-005
Heightened Def Con from 1.20728e-005 to 1.20729e-005
Heightened Def Con from 1.20734e-005 to 1.20754e-005
Heightened Def Con from 1.20774e-005 to 1.20775e-005
Heightened Def Con from 1.20777e-005 to 1.20787e-005
Heightened Def Con from 1.20787e-005 to 1.20807e-005
Heightened Def Con from 1.20832e-005 to 1.20844e-005
Heightened Def Con from 1.2086e-005 to 1.2088e-005
Heightened Def Con from 1.20891e-005 to 1.20901e-005
Heightened Def Con from 1.20947e-005 to 1.20967e-005
Heightened Def Con from 1.21514e-005 to 1.21524e-005
Heightened Def Con from 1.22153e-005 to 1.22155e-005
Heightened Def Con from 1.22157e-005 to 1.22167e-005
Heightened Def Con from 1.22313e-005 to 1.22315e-005
Heightened Def Con from 1.22702e-005 to 1.22702e-005
Heightened Def Con from 1.22703e-005 to 1.22723e-005
Heightened Def Con from 1.23547e-005 to 1.23547e-005
Heightened Def Con from 1.23549e-005 to 1.23569e-005
Heightened Def Con from 1.24137e-005 to 1.24138e-005
Heightened Def Con from 1.24496e-005 to 1.24506e-005
Heightened Def Con from 1.25348e-005 to 1.25349e-005
Heightened Def Con from 1.26273e-005 to 1.26274e-005
Heightened Def Con from 1.26277e-005 to 1.26287e-005
Heightened Def Con from 1.26349e-005 to 1.26359e-005
Heightened Def Con from 1.26382e-005 to 1.26392e-005
Heightened Def Con from 1.2643e-005 to 1.2645e-005
Heightened Def Con from 1.2645e-005 to 1.26452e-005
Heightened Def Con from 1.2646e-005 to 1.2648e-005
Heightened Def Con from 1.26607e-005 to 1.26617e-005
Heightened Def Con from 1.27105e-005 to 1.27115e-005
Heightened Def Con from 1.27148e-005 to 1.2715e-005
Heightened Def Con from 1.27153e-005 to 1.27173e-005
Heightened Def Con from 1.28802e-005 to 1.28822e-005
Heightened Def Con from 1.29373e-005 +to 1.29393e-005
Heightened Def Con from 1.29624e-005 to 1.29635e-005
Heightened Def Con from 1.30318e-005 to 1.30338e-005
Heightened Def Con from 1.30363e-005 to 1.30383e-005
Heightened Def Con from 1.30412e-005 to 1.30413e-005
Heightened Def Con from 1.30988e-005 to 1.30998e-005
Heightened Def Con from 1.31002e-005 to 1.31013e-005
Heightened Def Con from 1.31037e-005 to 1.31039e-005
Heightened Def Con from 1.31059e-005 to 1.31079e-005
Heightened Def Con from 1.3115e-005 to 1.3117e-005
Heightened Def Con from 1.31237e-005 to 1.31247e-005
Heightened Def Con from 1.31509e-005 to 1.31519e-005
Heightened Def Con from 1.3153e-005 to 1.3154e-005
Heightened Def Con from 1.3154e-005 to 1.3155e-005
Heightened Def Con from 1.3155e-005 to 1.31552e-005
Heightened Def Con from 1.31587e-005 to 1.31597e-005
Heightened Def Con from 1.31608e-005 to 1.31618e-005
Heightened Def Con from 1.31687e-005 to 1.31697e-005
Heightened Def Con from 1.31708e-005 to 1.31709e-005
Heightened Def Con from 1.31709e-005 +to 1.31719e-005
Heightened Def Con from 1.3173e-005 to 1.31731e-005
Heightened Def Con from 1.31769e-005 to 1.31779e-005
Heightened Def Con from 1.31857e-005 to 1.31877e-005
Heightened Def Con from 1.32024e-005 to 1.32026e-005
Heightened Def Con from 1.32039e-005 to 1.32059e-005
Heightened Def Con from 1.32062e-005 to 1.32082e-005
Heightened Def Con from 1.32082e-005 to 1.32102e-005
Heightened Def Con from 1.32105e-005 to 1.32106e-005
Heightened Def Con from 1.32172e-005 to 1.32173e-005
Heightened Def Con from 1.3218e-005 to 1.32181e-005
Heightened Def Con from 1.32228e-005 to 1.32238e-005
Heightened Def Con from 1.32711e-005 to 1.32721e-005
Heightened Def Con from 1.33124e-005 to 1.33135e-005
Heightened Def Con from 1.3355e-005 to 1.3356e-005
Heightened Def Con from 1.3487e-005 to 1.3489e-005
Heightened Def Con from 1.3505e-005 to 1.3506e-005
Heightened Def Con from 1.35079e-005 to 1.3508e-005
Heightened Def Con from 1.35092e-005 to 1.35102e-005
Heightened Def Con from 1.35831e-005 to 1.35833e-005
Heightened Def Con from 1.35846e-005 to 1.35847e-005
Heightened Def Con from 1.35847e-005 to 1.35867e-005
Heightened Def Con from 1.3587e-005 to 1.3588e-005
Heightened Def Con from 1.35941e-005 to 1.35943e-005
Heightened Def Con from 1.35956e-005 to 1.35976e-005
Heightened Def Con from 1.364e-005 to 1.36401e-005
Heightened Def Con from 1.36496e-005 to 1.36516e-005
Heightened Def Con from 1.36517e-005 to 1.36537e-005
Heightened Def Con from 1.36702e-005 to 1.36703e-005
Heightened Def Con from 1.37601e-005 to 1.37611e-005
Heightened Def Con from 1.37611e-005 to 1.37631e-005
Heightened Def Con from 1.37697e-005 to 1.37707e-005
Heightened Def Con from 1.37833e-005 to 1.37853e-005
Heightened Def Con from 1.37915e-005 to 1.37917e-005
Heightened Def Con from 1.37946e-005 to 1.37966e-005
Heightened Def Con from 1.3838e-005 to 1.38391e-005
Heightened Def Con from 1.38489e-005 to 1.3849e-005
Heightened Def Con from 1.38506e-005 to 1.38508e-005
Heightened Def Con from 1.38533e-005 to 1.38544e-005
Heightened Def Con from 1.38671e-005 to 1.38672e-005
Heightened Def Con from 1.38686e-005 to 1.38687e-005
Heightened Def Con from 1.40664e-005 to 1.40674e-005
Heightened Def Con from 1.41551e-005 to 1.41561e-005
Heightened Def Con from 1.41573e-005 to 1.41583e-005
Heightened Def Con from 1.4162e-005 to 1.4163e-005
Heightened Def Con from 1.4169e-005 to 1.4171e-005
Heightened Def Con from 1.41903e-005 to 1.41913e-005
Heightened Def Con from 1.4192e-005 to 1.4194e-005
Heightened Def Con from 1.42325e-005 to 1.42335e-005
Heightened Def Con from 1.4263e-005 to 1.42632e-005
Heightened Def Con from 1.42635e-005 to 1.42646e-005
Heightened Def Con from 1.43285e-005 to 1.43296e-005
Heightened Def Con from 1.43308e-005 +to 1.43319e-005
Heightened Def Con from 1.45823e-005 to 1.45824e-005
Heightened Def Con from 1.45826e-005 to 1.45836e-005
Heightened Def Con from 1.45892e-005 to 1.45893e-005
Heightened Def Con from 1.48108e-005 to 1.48128e-005
Heightened Def Con from 1.48135e-005 to 1.48145e-005
Heightened Def Con from 1.48168e-005 to 1.4817e-005
Heightened Def Con from 1.48544e-005 to 1.48554e-005
Heightened Def Con from 1.48622e-005 to 1.48632e-005
Heightened Def Con from 1.48645e-005 to 1.48646e-005
Heightened Def Con from 1.48766e-005 to 1.48767e-005
Heightened Def Con from 1.48771e-005 to 1.48782e-005
Heightened Def Con from 1.48787e-005 to 1.48807e-005
Heightened Def Con from 1.49945e-005 to 1.49955e-005
Heightened Def Con from 1.50629e-005 to 1.50649e-005
Heightened Def Con from 1.50656e-005 to 1.50676e-005
Heightened Def Con from 1.50864e-005 to 1.50865e-005
Heightened Def Con from 1.50894e-005 to 1.50904e-005
Heightened Def Con from 1.50907e-005 to 1.50918e-005
Heightened Def Con from 1.50921e-005 to 1.50941e-005
Heightened Def Con from 1.51129e-005 to 1.51139e-005
Heightened Def Con from 1.51182e-005 to 1.51192e-005
Heightened Def Con from 1.51214e-005 to 1.51224e-005
Heightened Def Con from 1.51497e-005 to 1.51507e-005
Heightened Def Con from 1.51557e-005 to 1.51567e-005
Heightened Def Con from 1.51628e-005 to 1.51648e-005
Heightened Def Con from 1.51709e-005 to 1.51719e-005
Heightened Def Con from 1.51753e-005 to 1.51754e-005
Heightened Def Con from 1.5292e-005 +to 1.5292e-005
Heightened Def Con from 1.53045e-005 to 1.53055e-005
Heightened Def Con from 1.53056e-005 to 1.53067e-005
Heightened Def Con from 1.53078e-005 to 1.53088e-005
Heightened Def Con from 1.5309e-005 to 1.53091e-005
Heightened Def Con from 1.53194e-005 to 1.53204e-005
Heightened Def Con from 1.53253e-005 to 1.53273e-005
Heightened Def Con from 1.53277e-005 to 1.53287e-005
Heightened Def Con from 1.53376e-005 to 1.53377e-005
Heightened Def Con from 1.53378e-005 to 1.53389e-005
Heightened Def Con from 1.53397e-005 to 1.53407e-005
Heightened Def Con from 1.5347e-005 to 1.5348e-005
Heightened Def Con from 1.53992e-005 to 1.54002e-005
Heightened Def Con from 1.55121e-005 to 1.55122e-005
Heightened Def Con from 1.55133e-005 to 1.55153e-005
Heightened Def Con from 1.57703e-005 to 1.57723e-005
Heightened Def Con from 1.57782e-005 to 1.57784e-005
Heightened Def Con from 1.58673e-005 to 1.58683e-005
Heightened Def Con from 1.58708e-005 to 1.58709e-005
Heightened Def Con from 1.5872e-005 to 1.5872e-005
Heightened Def Con from 1.5872e-005 to 1.58731e-005
Heightened Def Con from 1.58784e-005 to 1.58794e-005
Heightened Def Con from 1.58796e-005 to 1.58806e-005
Heightened Def Con from 1.58823e-005 to 1.58843e-005
Heightened Def Con from 1.59823e-005 to 1.59843e-005
Heightened Def Con from 1.59936e-005 to 1.59956e-005
Heightened Def Con from 1.65164e-005 to 1.65174e-005
Heightened Def Con from 1.66493e-005 to 1.66504e-005
Heightened Def Con from 1.66506e-005 to 1.66516e-005
Heightened Def Con from 1.6654e-005 to 1.6655e-005
Heightened Def Con from 1.66603e-005 to 1.66605e-005
Heightened Def Con from 1.66643e-005 to 1.66644e-005
Heightened Def Con from 1.66646e-005 to 1.66647e-005
Heightened Def Con from 1.66647e-005 to 1.66658e-005
Heightened Def Con from 1.66695e-005 to 1.66705e-005
Heightened Def Con from 1.69924e-005 to 1.69936e-005
Heightened Def Con from 1.69948e-005 to 1.69968e-005
Heightened Def Con from 1.69971e-005 to 1.69991e-005
Heightened Def Con from 1.70253e-005 to 1.70263e-005
Heightened Def Con from 1.70283e-005 to 1.70293e-005
Heightened Def Con from 1.70293e-005 to 1.70294e-005
Heightened Def Con from 1.70395e-005 to 1.70405e-005
Heightened Def Con from 1.70406e-005 ++to 1.70426e-005
Heightened Def Con from 1.72e-005 to 1.72011e-005
Heightened Def Con from 1.72014e-005 to 1.72034e-005
Heightened Def Con from 1.73092e-005 to 1.73102e-005
Heightened Def Con from 1.73103e-005 to 1.73105e-005
Heightened Def Con from 1.73117e-005 to 1.73137e-005
Heightened Def Con from 1.73165e-005 to 1.73185e-005
Heightened Def Con from 1.73206e-005 to 1.73226e-005
Heightened Def Con from 1.73358e-005 to 1.73378e-005
Heightened Def Con from 1.73388e-005 to 1.73398e-005
Heightened Def Con from 1.73962e-005 to 1.73972e-005
Heightened Def Con from 1.73991e-005 to 1.74001e-005
Heightened Def Con from 1.74426e-005 to 1.74426e-005
Heightened Def Con from 1.74426e-005 to 1.74437e-005
Heightened Def Con from 1.74457e-005 to 1.74467e-005
Heightened Def Con from 1.76086e-005 to 1.76096e-005
Heightened Def Con from 1.76311e-005 to 1.76321e-005
Heightened Def Con from 1.7732e-005 to 1.7733e-005
Heightened Def Con from 1.7735e-005 to 1.7736e-005
Heightened Def Con from 1.77677e-005 to 1.77687e-005
Heightened Def Con from 1.77923e-005 to 1.77933e-005
Heightened Def Con from 1.78639e-005 to 1.78649e-005
Heightened Def Con from 1.78898e-005 to 1.78908e-005
Heightened Def Con from 1.79521e-005 to 1.79531e-005
Heightened Def Con from 1.79553e-005 to 1.79554e-005
Heightened Def Con from 1.7956e-005 to 1.7957e-005
Heightened Def Con from 1.79935e-005 to 1.79945e-005
Heightened Def Con from 1.80933e-005 to 1.80943e-005
Heightened Def Con from 1.81272e-005 to 1.81282e-005
Heightened Def Con from 1.81282e-005 to 1.81284e-005
Heightened Def Con from 1.83933e-005 to 1.83934e-005
Heightened Def Con from 1.84335e-005 to 1.84347e-005
Heightened Def Con from 1.84349e-005 to 1.84359e-005
Heightened Def Con from 1.84686e-005 to 1.84696e-005
Heightened Def Con from 1.87871e-005 to 1.87881e-005
Heightened Def Con from 1.88068e-005 to 1.88078e-005
Heightened Def Con from 1.8985e-005 to 1.8987e-005
Heightened Def Con from 1.90126e-005 to 1.90146e-005
Heightened Def Con from 1.90155e-005 to 1.90175e-005
Heightened Def Con from 1.902e-005 to 1.9021e-005
Heightened Def Con from 1.9022e-005 to 1.9024e-005
Heightened Def Con from 1.90241e-005 to 1.90242e-005
Heightened Def Con from 1.90245e-005 to 1.90257e-005
Heightened Def Con from 1.90293e-005 to 1.90294e-005
Heightened Def Con from 1.90306e-005 to 1.90316e-005
Heightened Def Con from 1.90347e-005 to 1.90348e-005
Heightened Def Con from 1.91603e-005 to 1.91623e-005
Heightened Def Con from 1.92198e-005 to 1.92199e-005
Heightened Def Con from 1.92212e-005 to 1.92223e-005
Heightened Def Con from 1.92223e-005 to 1.92243e-005
Heightened Def Con from 1.92321e-005 to 1.92331e-005
Heightened Def Con from 1.92498e-005 to 1.92499e-005
Heightened Def Con from 1.92512e-005 +to 1.92532e-005
Heightened Def Con from 1.92533e-005 to 1.92553e-005
Heightened Def Con from 1.93289e-005 to 1.93309e-005
Heightened Def Con from 1.94139e-005 to 1.94159e-005
Heightened Def Con from 1.94159e-005 to 1.94159e-005
Heightened Def Con from 1.94173e-005 to 1.94184e-005
Heightened Def Con from 1.94195e-005 to 1.94196e-005
Heightened Def Con from 1.94661e-005 to 1.94681e-005
Heightened Def Con from 1.94908e-005 to 1.94918e-005
Heightened Def Con from 1.95242e-005 to 1.95243e-005
Heightened Def Con from 1.95261e-005 to 1.95263e-005
Heightened Def Con from 1.95874e-005 to 1.95874e-005
Heightened Def Con from 1.98167e-005 to 1.98169e-005
Heightened Def Con from 1.98208e-005 to 1.9821e-005
Heightened Def Con from 1.98242e-005 to 1.98243e-005
Heightened Def Con from 1.98255e-005 to 1.98275e-005
Heightened Def Con from 1.98728e-005 to 1.98748e-005
Heightened Def Con from 1.99785e-005 to 1.99805e-005
Heightened Def Con from 2.01064e-005 to 2.01074e-005
Heightened Def Con from 2.01086e-005 to 2.01097e-005
Heightened Def Con from 2.01194e-005 to 2.01204e-005
Heightened Def Con from 2.01263e-005 to 2.01264e-005
Heightened Def Con from 2.02086e-005 to 2.02088e-005
Heightened Def Con from 2.02099e-005 to 2.02119e-005
Heightened Def Con from 2.02678e-005 to 2.02698e-005
Heightened Def Con from 2.03208e-005 to 2.03228e-005
Heightened Def Con from 2.03481e-005 to 2.03491e-005
Heightened Def Con from 2.03916e-005 to 2.03918e-005
Heightened Def Con from 2.05174e-005 to 2.05185e-005
Heightened Def Con from 2.05548e-005 to 2.05549e-005
Heightened Def Con from 2.06576e-005 to 2.06596e-005
Heightened Def Con from 2.06696e-005 to 2.06697e-005
Heightened Def Con from 2.06705e-005 to 2.06725e-005
Heightened Def Con from 2.06725e-005 to 2.06745e-005
Heightened Def Con from 2.0688e-005 to 2.0689e-005
Heightened Def Con from 2.06893e-005 to 2.06904e-005
Heightened Def Con from 2.06966e-005 to 2.06986e-005
Heightened Def Con from 2.07122e-005 to 2.07123e-005
Heightened Def Con from 2.07138e-005 to 2.07139e-005
Heightened Def Con from 2.07142e-005 to 2.07162e-005
Heightened Def Con from 2.07527e-005 to 2.07537e-005
Heightened Def Con from 2.0814e-005 to 2.0816e-005
Heightened Def Con from 2.09538e-005 to 2.09538e-005
Heightened Def Con from 2.09541e-005 to 2.09561e-005
Heightened Def Con from 2.09617e-005 to 2.09618e-005
Heightened Def Con from 2.10221e-005 to 2.10241e-005
Heightened Def Con from 2.10473e-005 to 2.10474e-005
Heightened Def Con from 2.10478e-005 to 2.10479e-005
Heightened Def Con from 2.10482e-005 to 2.10502e-005
Heightened Def Con from 2.10505e-005 to 2.10506e-005
Heightened Def Con from 2.10559e-005 to 2.10569e-005
Heightened Def Con from 2.11175e-005 to 2.11185e-005
Heightened Def Con from 2.13367e-005 to 2.13387e-005
Heightened Def Con from 2.1345e-005 to 2.1346e-005
Heightened Def Con from 2.1348e-005 to 2.135e-005
Heightened Def Con from 2.16254e-005 to 2.16255e-005
Heightened Def Con from 2.16532e-005 to 2.16552e-005
Heightened Def Con from 2.16975e-005 +to 2.16995e-005
Heightened Def Con from 2.1705e-005 to 2.17052e-005
Heightened Def Con from 2.17421e-005 to 2.17431e-005
Heightened Def Con from 2.18225e-005 to 2.18235e-005
Heightened Def Con from 2.19793e-005 to 2.19803e-005
Heightened Def Con from 2.19803e-005 to 2.19814e-005
Heightened Def Con from 2.19822e-005 to 2.19842e-005
Heightened Def Con from 2.19902e-005 to 2.19903e-005
Heightened Def Con from 2.2084e-005 to 2.2086e-005
Heightened Def Con from 2.20924e-005 to 2.20925e-005
Heightened Def Con from 2.20933e-005 to 2.20934e-005
Heightened Def Con from 2.20942e-005 to 2.20952e-005
Heightened Def Con from 2.20959e-005 to 2.20979e-005
Heightened Def Con from 2.213e-005 to 2.2132e-005
Heightened Def Con from 2.24659e-005 to 2.24671e-005
Heightened Def Con from 2.26221e-005 to 2.26222e-005
Heightened Def Con from 2.29411e-005 to 2.29421e-005
Heightened Def Con from 2.29443e-005 to 2.29463e-005
Heightened Def Con from 2.29463e-005 to 2.29473e-005
Heightened Def Con from 2.30013e-005 to 2.30014e-005
Heightened Def Con from 2.30019e-005 to 2.30039e-005
Heightened Def Con from 2.30231e-005 to 2.30241e-005
Heightened Def Con from 2.30285e-005 to 2.30295e-005
Heightened Def Con from 2.31289e-005 to 2.3129e-005
Heightened Def Con from 2.31447e-005 to 2.31457e-005
Heightened Def Con from 2.32976e-005 to 2.32987e-005
Heightened Def Con from 2.33103e-005 to 2.33113e-005
Heightened Def Con from 2.33277e-005 to 2.33279e-005
Heightened Def Con from 2.33355e-005 to 2.33375e-005
Heightened Def Con from 2.33384e-005 to 2.33394e-005
Heightened Def Con from 2.34067e-005 to 2.34068e-005
Heightened Def Con from 2.34082e-005 to 2.34102e-005
Heightened Def Con from 2.34257e-005 to 2.34267e-005
Heightened Def Con from 2.36121e-005 to 2.36122e-005
Heightened Def Con from 2.36519e-005 to 2.3652e-005
Heightened Def Con from 2.36678e-005 to 2.36688e-005
Heightened Def Con from 2.36702e-005 +to 2.36712e-005
Heightened Def Con from 2.37707e-005 to 2.37727e-005
Heightened Def Con from 2.37749e-005 to 2.37769e-005
Heightened Def Con from 2.39294e-005 to 2.39294e-005
Heightened Def Con from 2.393e-005 to 2.39301e-005
Heightened Def Con from 2.3955e-005 to 2.39561e-005
Heightened Def Con from 2.40975e-005 to 2.40985e-005
Heightened Def Con from 2.41046e-005 to 2.41047e-005
Heightened Def Con from 2.41582e-005 to 2.41583e-005
Heightened Def Con from 2.42108e-005 to 2.42128e-005
Heightened Def Con from 2.42149e-005 to 2.42169e-005
Heightened Def Con from 2.43158e-005 to 2.43168e-005
Heightened Def Con from 2.43949e-005 to 2.43949e-005
Heightened Def Con from 2.43949e-005 to 2.43969e-005
Heightened Def Con from 2.44082e-005 to 2.44083e-005
Heightened Def Con from 2.44085e-005 to 2.44096e-005
Heightened Def Con from 2.44097e-005 to 2.44117e-005
Heightened Def Con from 2.44142e-005 to 2.44142e-005
Heightened Def Con from 2.44142e-005 to 2.44153e-005
Heightened Def Con from 2.44153e-005 to 2.44163e-005
Heightened Def Con from 2.44184e-005 to 2.44204e-005
Heightened Def Con from 2.45005e-005 +to 2.45007e-005
Heightened Def Con from 2.45007e-005 to 2.45008e-005
Heightened Def Con from 2.46104e-005 to 2.46114e-005
Heightened Def Con from 2.47583e-005 to 2.47584e-005
Heightened Def Con from 2.47609e-005 to 2.47629e-005
Heightened Def Con from 2.47945e-005 to 2.47955e-005
Heightened Def Con from 2.48041e-005 to 2.48051e-005
Heightened Def Con from 2.48586e-005 to 2.48596e-005
Heightened Def Con from 2.5017e-005 to 2.5018e-005
Heightened Def Con from 2.50217e-005 to 2.50227e-005
Heightened Def Con from 2.51083e-005 to 2.51084e-005
Heightened Def Con from 2.51095e-005 to 2.51115e-005
Heightened Def Con from 2.51133e-005 to 2.51134e-005
Heightened Def Con from 2.51153e-005 to 2.51163e-005
Heightened Def Con from 2.52653e-005 to 2.52655e-005
Heightened Def Con from 2.52655e-005 to 2.52666e-005
Heightened Def Con from 2.52686e-005 to 2.52696e-005
Heightened Def Con from 2.52868e-005 to 2.52878e-005
Heightened Def Con from 2.52885e-005 to 2.52895e-005
Heightened Def Con from 2.53007e-005 to 2.53017e-005
Heightened Def Con from 2.53621e-005 to 2.53622e-005
Heightened Def Con from 2.53623e-005 to 2.53633e-005
Heightened Def Con from 2.53721e-005 to 2.53741e-005
Heightened Def Con from 2.53801e-005 to 2.53821e-005
Heightened Def Con from 2.54688e-005 to 2.54708e-005
Heightened Def Con from 2.54881e-005 to 2.54891e-005
Heightened Def Con from 2.55105e-005 to 2.55115e-005
Heightened Def Con from 2.55866e-005 to 2.55886e-005
Heightened Def Con from 2.56176e-005 to 2.56177e-005
Heightened Def Con from 2.56206e-005 to 2.56208e-005
Heightened Def Con from 2.56217e-005 to 2.56237e-005
Heightened Def Con from 2.58018e-005 to 2.58038e-005
Heightened Def Con from 2.58419e-005 to 2.58431e-005
Heightened Def Con from 2.58729e-005 to 2.58739e-005
Heightened Def Con from 2.59208e-005 to 2.59228e-005
Heightened Def Con from 2.59847e-005 to 2.59848e-005
Heightened Def Con from 2.62741e-005 to 2.62742e-005
Heightened Def Con from 2.62742e-005 to 2.62752e-005
Heightened Def Con from 2.63262e-005 to 2.63273e-005
Heightened Def Con from 2.63328e-005 to 2.63339e-005
Heightened Def Con from 2.63491e-005 to 2.63492e-005
Heightened Def Con from 2.66771e-005 to 2.66791e-005
Heightened Def Con from 2.67437e-005 to 2.67457e-005
Heightened Def Con from 2.67489e-005 to 2.67499e-005
Heightened Def Con from 2.67589e-005 to 2.67609e-005
Heightened Def Con from 2.67634e-005 to 2.67645e-005
Heightened Def Con from 2.67648e-005 to 2.67658e-005
Heightened Def Con from 2.67919e-005 to 2.67921e-005
Heightened Def Con from 2.68737e-005 to 2.68757e-005
Heightened Def Con from 2.69136e-005 to 2.69146e-005
Heightened Def Con from 2.69146e-005 +to 2.69156e-005
Heightened Def Con from 2.69181e-005 to 2.69192e-005
Heightened Def Con from 2.69227e-005 to 2.69227e-005
Heightened Def Con from 2.69227e-005 to 2.69247e-005
Heightened Def Con from 2.69313e-005 to 2.69323e-005
Heightened Def Con from 2.69333e-005 to 2.69353e-005
Heightened Def Con from 2.69461e-005 to 2.69463e-005
Heightened Def Con from 2.69471e-005 to 2.69473e-005
Heightened Def Con from 2.69475e-005 to 2.69485e-005
Heightened Def Con from 2.69485e-005 to 2.69486e-005
Heightened Def Con from 2.695e-005 to 2.6952e-005
Heightened Def Con from 2.70543e-005 to 2.70553e-005
Heightened Def Con from 2.70661e-005 to 2.70662e-005
Heightened Def Con from 2.70675e-005 to 2.70695e-005
Heightened Def Con from 2.72509e-005 to 2.7251e-005
Heightened Def Con from 2.72841e-005 to 2.72843e-005
Heightened Def Con from 2.72845e-005 to 2.72846e-005
Heightened Def Con from 2.72849e-005 to 2.72859e-005
Heightened Def Con from 2.74279e-005 to 2.74289e-005
Heightened Def Con from 2.74309e-005 to 2.7431e-005
Heightened Def Con from 2.7431e-005 to 2.7433e-005
Heightened Def Con from 2.7522e-005 to 2.7523e-005
Heightened Def Con from 2.7549e-005 to 2.755e-005
Heightened Def Con from 2.75914e-005 to 2.75934e-005
Heightened Def Con from 2.75979e-005 to 2.7599e-005
Heightened Def Con from 2.76049e-005 to 2.76059e-005
Heightened Def Con from 2.76128e-005 to 2.76128e-005
Heightened Def Con from 2.76128e-005 +to 2.76148e-005
Heightened Def Con from 2.76481e-005 to 2.76501e-005
Heightened Def Con from 2.76585e-005 to 2.76605e-005
Heightened Def Con from 2.77297e-005 to 2.77308e-005
Heightened Def Con from 2.77864e-005 to 2.77874e-005
Heightened Def Con from 2.78298e-005 to 2.78308e-005
Heightened Def Con from 2.78358e-005 to 2.78359e-005
Heightened Def Con from 2.78361e-005 to 2.78381e-005
Heightened Def Con from 2.78752e-005 to 2.78762e-005
Heightened Def Con from 2.79786e-005 to 2.79796e-005
Heightened Def Con from 2.79834e-005 to 2.79835e-005
Heightened Def Con from 2.81598e-005 to 2.81618e-005
Heightened Def Con from 2.81696e-005 to 2.81706e-005
Heightened Def Con from 2.81751e-005 to 2.81771e-005
Heightened Def Con from 2.81878e-005 to 2.81888e-005
Heightened Def Con from 2.82053e-005 to 2.82063e-005
Heightened Def Con from 2.82484e-005 to 2.82494e-005
Heightened Def Con from 2.82769e-005 to 2.82771e-005
Heightened Def Con from 2.84068e-005 to 2.84088e-005
Heightened Def Con from 2.84249e-005 to 2.84251e-005
Heightened Def Con from 2.84259e-005 to 2.84269e-005
Heightened Def Con from 2.84512e-005 to 2.84522e-005
Heightened Def Con from 2.87455e-005 to 2.87465e-005
Heightened Def Con from 2.90628e-005 to 2.90629e-005
Heightened Def Con from 2.90738e-005 to 2.90739e-005
Heightened Def Con from 2.90871e-005 to 2.90881e-005
Heightened Def Con from 2.90919e-005 to 2.90929e-005
Heightened Def Con from 2.90929e-005 to 2.9093e-005
Heightened Def Con from 2.90933e-005 to 2.90953e-005
Heightened Def Con from 2.92499e-005 to 2.92509e-005
Heightened Def Con from 2.92776e-005 to 2.92776e-005
Heightened Def Con from 2.92776e-005 to 2.92788e-005
Heightened Def Con from 2.93128e-005 to 2.93148e-005
Heightened Def Con from 2.9353e-005 to 2.93532e-005
Heightened Def Con from 2.93774e-005 to 2.93794e-005
Heightened Def Con from 2.94543e-005 to 2.94544e-005
Heightened Def Con from 2.94811e-005 to 2.94811e-005
Heightened Def Con from 2.9484e-005 to 2.9485e-005
Heightened Def Con from 2.94863e-005 to 2.94863e-005
Heightened Def Con from 2.94863e-005 to 2.94883e-005
Heightened Def Con from 2.96198e-005 to 2.96208e-005
Heightened Def Con from 2.96211e-005 to 2.96221e-005
Heightened Def Con from 2.96969e-005 to 2.9698e-005
Heightened Def Con from 2.97027e-005 to 2.97037e-005
Heightened Def Con from 2.97327e-005 to 2.97347e-005
Heightened Def Con from 2.97429e-005 to 2.97431e-005
Heightened Def Con from 2.97795e-005 to 2.97805e-005
Heightened Def Con from 2.99116e-005 to 2.99126e-005
Heightened Def Con from 2.99172e-005 to 2.99192e-005
Heightened Def Con from 2.99235e-005 to 2.99245e-005
Heightened Def Con from 2.99245e-005 to 2.99246e-005
Heightened Def Con from 2.99249e-005 to 2.9925e-005
Heightened Def Con from 2.99272e-005 to 2.99292e-005
Heightened Def Con from 3.00658e-005 to 3.00678e-005
Heightened Def Con from 3.00962e-005 to 3.00973e-005
Heightened Def Con from 3.00984e-005 to 3.00994e-005
Heightened Def Con from 3.03973e-005 to 3.03983e-005
Heightened Def Con from 3.04013e-005 to 3.04033e-005
Heightened Def Con from 3.04099e-005 to 3.04109e-005
Heightened Def Con from 3.04118e-005 to 3.04129e-005
Heightened Def Con from 3.04129e-005 to 3.0414e-005
Heightened Def Con from 3.04943e-005 to 3.04944e-005
Heightened Def Con from 3.04957e-005 to 3.04958e-005
Heightened Def Con from 3.04959e-005 to 3.0497e-005
Heightened Def Con from 3.05319e-005 to 3.05339e-005
Heightened Def Con from 3.05413e-005 to 3.05414e-005
Heightened Def Con from 3.05437e-005 to 3.05438e-005
Heightened Def Con from 3.05449e-005 to 3.05449e-005
Heightened Def Con from 3.0545e-005 to 3.05461e-005
Heightened Def Con from 3.05518e-005 to 3.05518e-005
Heightened Def Con from 3.05518e-005 to 3.05519e-005
Heightened Def Con from 3.07195e-005 to 3.07206e-005
Heightened Def Con from 3.07264e-005 to 3.07275e-005
Heightened Def Con from 3.07798e-005 to 3.07818e-005
Heightened Def Con from 3.08588e-005 to 3.08608e-005
Heightened Def Con from 3.11008e-005 to 3.11018e-005
Heightened Def Con from 3.11084e-005 to 3.11104e-005
Heightened Def Con from 3.11168e-005 +to 3.11188e-005
Heightened Def Con from 3.11332e-005 to 3.11352e-005
Heightened Def Con from 3.11638e-005 to 3.11658e-005
Heightened Def Con from 3.12308e-005 to 3.12318e-005
Heightened Def Con from 3.12689e-005 to 3.12709e-005
Heightened Def Con from 3.12898e-005 to 3.12899e-005
Heightened Def Con from 3.12908e-005 to 3.12908e-005
Heightened Def Con from 3.12921e-005 to 3.12931e-005
Heightened Def Con from 3.12932e-005 +to 3.12942e-005
Heightened Def Con from 3.1456e-005 to 3.14561e-005
Heightened Def Con from 3.14562e-005 to 3.14572e-005
Heightened Def Con from 3.14572e-005 to 3.14584e-005
Heightened Def Con from 3.14586e-005 to 3.14596e-005
Heightened Def Con from 3.14736e-005 to 3.14746e-005
Heightened Def Con from 3.15189e-005 to 3.15209e-005
Heightened Def Con from 3.15381e-005 to 3.15401e-005
Heightened Def Con from 3.15473e-005 to 3.15483e-005
Heightened Def Con from 3.15552e-005 to 3.15552e-005
Heightened Def Con from 3.15555e-005 to 3.15556e-005
Heightened Def Con from 3.15724e-005 to 3.15744e-005
Heightened Def Con from 3.15745e-005 to 3.15747e-005
Heightened Def Con from 3.16411e-005 to 3.16412e-005
Heightened Def Con from 3.17277e-005 to 3.17278e-005
Heightened Def Con from 3.17286e-005 to 3.17296e-005
Heightened Def Con from 3.17571e-005 to 3.17581e-005
Heightened Def Con from 3.17771e-005 to 3.17772e-005
Heightened Def Con from 3.17821e-005 to 3.17831e-005
Heightened Def Con from 3.17901e-005 to 3.17911e-005
Heightened Def Con from 3.18574e-005 to 3.18584e-005
Heightened Def Con from 3.18605e-005 to 3.18615e-005
Heightened Def Con from 3.19218e-005 to 3.19228e-005
Heightened Def Con from 3.19591e-005 to 3.19601e-005
Heightened Def Con from 3.19603e-005 to 3.19623e-005
Heightened Def Con from 3.20017e-005 to 3.20037e-005
Heightened Def Con from 3.20797e-005 to 3.20807e-005
Heightened Def Con from 3.20807e-005 to 3.20827e-005
Heightened Def Con from 3.20975e-005 to 3.20995e-005
Heightened Def Con from 3.21019e-005 to 3.21039e-005
Heightened Def Con from 3.21349e-005 to 3.21369e-005
Heightened Def Con from 3.23632e-005 to 3.23633e-005
Heightened Def Con from 3.2431e-005 to 3.2432e-005
Heightened Def Con from 3.25715e-005 to 3.25735e-005
Heightened Def Con from 3.26116e-005 to 3.26116e-005
Heightened Def Con from 3.26117e-005 +to 3.26128e-005
Heightened Def Con from 3.26139e-005 +to 3.2615e-005
Heightened Def Con from 3.26166e-005 to 3.26186e-005
Heightened Def Con from 3.26188e-005 to 3.26208e-005
Heightened Def Con from 3.26712e-005 to 3.26722e-005
Heightened Def Con from 3.26742e-005 to 3.26752e-005
Heightened Def Con from 3.27872e-005 to 3.27872e-005
Heightened Def Con from 3.27878e-005 to 3.27888e-005
Heightened Def Con from 3.2869e-005 to 3.287e-005
Heightened Def Con from 3.30212e-005 to 3.30213e-005
Heightened Def Con from 3.30361e-005 to 3.30371e-005
Heightened Def Con from 3.30723e-005 to 3.30724e-005
Heightened Def Con from 3.30732e-005 to 3.30752e-005
Heightened Def Con from 3.30754e-005 to 3.30765e-005
Heightened Def Con from 3.30773e-005 to 3.30773e-005
Heightened Def Con from 3.30773e-005 to 3.30793e-005
Heightened Def Con from 3.30925e-005 +to 3.30935e-005
Heightened Def Con from 3.30955e-005 to 3.30956e-005
Heightened Def Con from 3.32056e-005 to 3.32058e-005
Heightened Def Con from 3.32058e-005 to 3.32068e-005
Heightened Def Con from 3.32084e-005 to 3.32085e-005
Heightened Def Con from 3.32085e-005 +to 3.32096e-005
Heightened Def Con from 3.32099e-005 to 3.32101e-005
Heightened Def Con from 3.32116e-005 to 3.32117e-005
Heightened Def Con from 3.32685e-005 to 3.32687e-005
Heightened Def Con from 3.32689e-005 to 3.32699e-005
Heightened Def Con from 3.32701e-005 to 3.32702e-005
Heightened Def Con from 3.33653e-005 to 3.33673e-005
Heightened Def Con from 3.34389e-005 to 3.34409e-005
Heightened Def Con from 3.34545e-005 to 3.34546e-005
Heightened Def Con from 3.35974e-005 to 3.35984e-005
Heightened Def Con from 3.35984e-005 to 3.36004e-005
Heightened Def Con from 3.36007e-005 to 3.36027e-005
Heightened Def Con from 3.36528e-005 to 3.36538e-005
Heightened Def Con from 3.37731e-005 to 3.37751e-005
Heightened Def Con from 3.37779e-005 to 3.37799e-005
Heightened Def Con from 3.39168e-005 to 3.39178e-005
Heightened Def Con from 3.39215e-005 to 3.39235e-005
Heightened Def Con from 3.39238e-005 to 3.39258e-005
Heightened Def Con from 3.43274e-005 to 3.43294e-005
Heightened Def Con from 3.45761e-005 to 3.45761e-005
Heightened Def Con from 3.45761e-005 to 3.45773e-005
Heightened Def Con from 3.45784e-005 to 3.45794e-005
Heightened Def Con from 3.46732e-005 to 3.46734e-005
Heightened Def Con from 3.46734e-005 to 3.46744e-005
Heightened Def Con from 3.49598e-005 to 3.49618e-005
Heightened Def Con from 3.4962e-005 to 3.4964e-005
Heightened Def Con from 3.4966e-005 to 3.4967e-005
Heightened Def Con from 3.49938e-005 to 3.49939e-005
Heightened Def Con from 3.50881e-005 to 3.50891e-005
Heightened Def Con from 3.54325e-005 to 3.54345e-005
Heightened Def Con from 3.56832e-005 to 3.56833e-005
Heightened Def Con from 3.57346e-005 to 3.57346e-005
Heightened Def Con from 3.57346e-005 to 3.57366e-005
Heightened Def Con from 3.57378e-005 to 3.57379e-005
Heightened Def Con from 3.57395e-005 to 3.57405e-005
Heightened Def Con from 3.57406e-005 to 3.57407e-005
Heightened Def Con from 3.57428e-005 to 3.57438e-005
Heightened Def Con from 3.57784e-005 to 3.57794e-005
Heightened Def Con from 3.57828e-005 to 3.57848e-005
Heightened Def Con from 3.57873e-005 +to 3.57893e-005
Heightened Def Con from 3.59879e-005 to 3.59889e-005
Heightened Def Con from 3.60695e-005 to 3.60696e-005
Heightened Def Con from 3.60702e-005 to 3.60703e-005
Heightened Def Con from 3.6071e-005 to 3.60712e-005
Heightened Def Con from 3.61033e-005 to 3.61034e-005
Heightened Def Con from 3.61213e-005 to 3.61214e-005
Heightened Def Con from 3.61217e-005 to 3.61237e-005
Heightened Def Con from 3.61467e-005 to 3.61487e-005
Heightened Def Con from 3.61616e-005 to 3.61626e-005
Heightened Def Con from 3.6339e-005 to 3.6339e-005
Heightened Def Con from 3.63392e-005 to 3.63393e-005
Heightened Def Con from 3.63413e-005 to 3.63414e-005
Heightened Def Con from 3.63419e-005 to 3.6342e-005
Heightened Def Con from 3.63422e-005 to 3.63442e-005
Heightened Def Con from 3.66888e-005 to 3.66908e-005
Heightened Def Con from 3.67385e-005 to 3.67405e-005
Heightened Def Con from 3.69415e-005 to 3.69425e-005
Heightened Def Con from 3.72376e-005 +to 3.72396e-005
Heightened Def Con from 3.72969e-005 to 3.72979e-005
Heightened Def Con from 3.72979e-005 to 3.72989e-005
Heightened Def Con from 3.72991e-005 +to 3.73001e-005
Heightened Def Con from 3.75256e-005 to 3.75257e-005
Heightened Def Con from 3.75286e-005 to 3.75296e-005
Heightened Def Con from 3.75507e-005 to 3.75517e-005
Heightened Def Con from 3.75565e-005 to 3.75575e-005
Heightened Def Con from 3.76016e-005 to 3.76026e-005
Heightened Def Con from 3.76033e-005 to 3.76043e-005
Heightened Def Con from 3.76043e-005 to 3.76063e-005
Heightened Def Con from 3.77569e-005 to 3.7757e-005
Heightened Def Con from 3.77771e-005 to 3.77781e-005
Heightened Def Con from 3.77785e-005 to 3.77795e-005
Heightened Def Con from 3.77815e-005 to 3.77825e-005
Heightened Def Con from 3.81632e-005 to 3.81652e-005
Heightened Def Con from 3.81774e-005 to 3.81786e-005
Heightened Def Con from 3.81786e-005 to 3.81787e-005
Heightened Def Con from 3.81806e-005 to 3.81816e-005
Heightened Def Con from 3.8193e-005 to 3.8194e-005
Heightened Def Con from 3.82001e-005 to 3.82002e-005
Heightened Def Con from 3.82002e-005 to 3.82003e-005
Heightened Def Con from 3.82014e-005 to 3.82025e-005
Heightened Def Con from 3.82043e-005 to 3.82063e-005
Heightened Def Con from 3.82064e-005 to 3.82075e-005
Heightened Def Con from 3.82078e-005 to 3.82098e-005
Heightened Def Con from 3.82954e-005 to 3.82956e-005
Heightened Def Con from 3.82956e-005 to 3.82957e-005
Heightened Def Con from 3.83128e-005 to 3.83138e-005
Heightened Def Con from 3.83184e-005 to 3.83185e-005
Heightened Def Con from 3.84232e-005 to 3.84252e-005
Heightened Def Con from 3.84278e-005 to 3.84298e-005
Heightened Def Con from 3.84891e-005 to 3.84893e-005
Heightened Def Con from 3.84895e-005 to 3.84905e-005
Heightened Def Con from 3.84928e-005 to 3.8493e-005
Heightened Def Con from 3.85265e-005 to 3.85275e-005
Heightened Def Con from 3.85303e-005 to 3.85323e-005
Heightened Def Con from 3.86063e-005 to 3.86083e-005
Heightened Def Con from 3.86143e-005 to 3.86163e-005
Heightened Def Con from 3.89876e-005 to 3.89877e-005
Heightened Def Con from 3.89877e-005 +to 3.89887e-005
Heightened Def Con from 3.90133e-005 to 3.90134e-005
Heightened Def Con from 3.90304e-005 to 3.90314e-005
Heightened Def Con from 3.92264e-005 to 3.92284e-005
Heightened Def Con from 3.94145e-005 to 3.94165e-005
Heightened Def Con from 3.94209e-005 +to 3.94219e-005
Heightened Def Con from 3.94219e-005 to 3.94221e-005
Heightened Def Con from 3.94223e-005 to 3.94223e-005
Heightened Def Con from 3.94224e-005 to 3.94226e-005
Heightened Def Con from 3.94229e-005 to 3.94239e-005
Heightened Def Con from 3.94239e-005 to 3.94239e-005
Heightened Def Con from 3.94256e-005 to 3.94276e-005
Heightened Def Con from 3.94311e-005 to 3.94331e-005
Heightened Def Con from 3.94335e-005 to 3.94355e-005
Heightened Def Con from 3.94704e-005 to 3.94724e-005
Heightened Def Con from 3.94793e-005 to 3.94813e-005
Heightened Def Con from 3.95095e-005 to 3.95105e-005
Heightened Def Con from 3.9513e-005 to 3.95131e-005
Heightened Def Con from 3.95138e-005 to 3.95139e-005
Heightened Def Con from 3.95139e-005 to 3.95151e-005
Heightened Def Con from 3.95158e-005 to 3.95158e-005
Heightened Def Con from 3.95185e-005 to 3.95185e-005
Heightened Def Con from 3.95185e-005 to 3.95196e-005
Heightened Def Con from 3.95238e-005 to 3.95258e-005
Heightened Def Con from 3.96047e-005 to 3.96048e-005
Heightened Def Con from 3.96208e-005 to 3.96209e-005
Heightened Def Con from 3.96346e-005 to 3.96356e-005
Heightened Def Con from 3.96543e-005 to 3.96555e-005
Heightened Def Con from 3.96594e-005 to 3.96604e-005
Heightened Def Con from 3.97926e-005 to 3.97927e-005
Heightened Def Con from 3.98946e-005 to 3.98947e-005
Heightened Def Con from 4.00377e-005 to 4.00397e-005
Heightened Def Con from 4.01075e-005 to 4.01076e-005
Heightened Def Con from 4.01127e-005 to 4.01147e-005
Heightened Def Con from 4.016e-005 to 4.01611e-005
Heightened Def Con from 4.01614e-005 to 4.01634e-005
Heightened Def Con from 4.02673e-005 to 4.02673e-005
Heightened Def Con from 4.02673e-005 to 4.02693e-005
Heightened Def Con from 4.03397e-005 to 4.03417e-005
Heightened Def Con from 4.03435e-005 to 4.03436e-005
Heightened Def Con from 4.03436e-005 to 4.03456e-005
Heightened Def Con from 4.03499e-005 to 4.03509e-005
Heightened Def Con from 4.04012e-005 to 4.04032e-005
Heightened Def Con from 4.04585e-005 to 4.04586e-005
Heightened Def Con from 4.04587e-005 to 4.04588e-005
Heightened Def Con from 4.04588e-005 to 4.04598e-005
Heightened Def Con from 4.046e-005 to 4.0462e-005
Heightened Def Con from 4.05918e-005 to 4.05938e-005
Heightened Def Con from 4.07274e-005 to 4.07294e-005
Heightened Def Con from 4.07298e-005 to 4.07308e-005
Heightened Def Con from 4.08344e-005 to 4.08345e-005
Heightened Def Con from 4.0835e-005 to 4.0835e-005
Heightened Def Con from 4.0835e-005 +to 4.0837e-005
Heightened Def Con from 4.08399e-005 to 4.084e-005
Heightened Def Con from 4.08873e-005 to 4.08884e-005
Heightened Def Con from 4.08897e-005 to 4.08907e-005
Heightened Def Con from 4.09015e-005 to 4.09025e-005
Heightened Def Con from 4.10953e-005 to 4.10964e-005
Heightened Def Con from 4.11211e-005 to 4.11221e-005
Heightened Def Con from 4.11452e-005 to 4.11462e-005
Heightened Def Con from 4.11481e-005 to 4.11482e-005
Heightened Def Con from 4.119e-005 to 4.1192e-005
Heightened Def Con from 4.13687e-005 to 4.13707e-005
Heightened Def Con from 4.17e-005 to 4.1701e-005
Heightened Def Con from 4.17013e-005 to 4.17033e-005
Heightened Def Con from 4.17929e-005 to 4.17939e-005
Heightened Def Con from 4.19367e-005 to 4.19377e-005
Heightened Def Con from 4.19533e-005 to 4.19553e-005
Heightened Def Con from 4.19556e-005 +to 4.19576e-005
Heightened Def Con from 4.19637e-005 to 4.19638e-005
Heightened Def Con from 4.19756e-005 to 4.19776e-005
Heightened Def Con from 4.20408e-005 to 4.20418e-005
Heightened Def Con from 4.20439e-005 to 4.20449e-005
Heightened Def Con from 4.20588e-005 +to 4.20598e-005
Heightened Def Con from 4.20662e-005 to 4.20672e-005
Heightened Def Con from 4.20674e-005 +to 4.20684e-005
Heightened Def Con from 4.20685e-005 to 4.20696e-005
Heightened Def Con from 4.20729e-005 to 4.20739e-005
Heightened Def Con from 4.20833e-005 to 4.20843e-005
Heightened Def Con from 4.21422e-005 +to 4.21432e-005
Heightened Def Con from 4.21462e-005 to 4.21482e-005
Heightened Def Con from 4.23388e-005 to 4.23398e-005
Heightened Def Con from 4.23465e-005 to 4.23475e-005
Heightened Def Con from 4.23488e-005 to 4.23499e-005
Heightened Def Con from 4.23502e-005 to 4.23503e-005
Heightened Def Con from 4.23504e-005 to 4.23514e-005
Heightened Def Con from 4.2384e-005 to 4.2386e-005
Heightened Def Con from 4.23881e-005 to 4.23882e-005
Heightened Def Con from 4.2389e-005 to 4.239e-005
Heightened Def Con from 4.25394e-005 to 4.25394e-005
Heightened Def Con from 4.25403e-005 to 4.25405e-005
Heightened Def Con from 4.25449e-005 to 4.25469e-005
Heightened Def Con from 4.26701e-005 to 4.26721e-005
Heightened Def Con from 4.2683e-005 to 4.2684e-005
Heightened Def Con from 4.27935e-005 to 4.27936e-005
Heightened Def Con from 4.27941e-005 to 4.27961e-005
Heightened Def Con from 4.30748e-005 to 4.30758e-005
Heightened Def Con from 4.32262e-005 to 4.32272e-005
Heightened Def Con from 4.32308e-005 to 4.32309e-005
Heightened Def Con from 4.33596e-005 to 4.33616e-005
Heightened Def Con from 4.34971e-005 to 4.34972e-005
Heightened Def Con from 4.35733e-005 to 4.35743e-005
Heightened Def Con from 4.3575e-005 to 4.3577e-005
Heightened Def Con from 4.3577e-005 to 4.35771e-005
Heightened Def Con from 4.36544e-005 to 4.36554e-005
Heightened Def Con from 4.37165e-005 to 4.37185e-005
Heightened Def Con from 4.37185e-005 to 4.37187e-005
Heightened Def Con from 4.3719e-005 to 4.372e-005
Heightened Def Con from 4.41204e-005 to 4.41206e-005
Heightened Def Con from 4.41208e-005 to 4.41228e-005
Heightened Def Con from 4.41504e-005 to 4.41514e-005
Heightened Def Con from 4.4186e-005 to 4.4187e-005
Heightened Def Con from 4.4266e-005 to 4.4267e-005
Heightened Def Con from 4.46636e-005 to 4.46646e-005
Heightened Def Con from 4.47074e-005 to 4.47085e-005
Heightened Def Con from 4.47092e-005 to 4.47092e-005
Heightened Def Con from 4.47099e-005 to 4.47109e-005
Heightened Def Con from 4.48578e-005 to 4.48598e-005
Heightened Def Con from 4.48601e-005 to 4.48612e-005
Heightened Def Con from 4.48624e-005 to 4.48635e-005
Heightened Def Con from 4.48662e-005 to 4.48672e-005
Heightened Def Con from 4.4896e-005 to 4.4897e-005
Heightened Def Con from 4.49008e-005 to 4.49028e-005
Heightened Def Con from 4.49081e-005 to 4.49082e-005
Heightened Def Con from 4.49309e-005 to 4.49329e-005
Heightened Def Con from 4.49962e-005 to 4.49982e-005
Heightened Def Con from 4.50046e-005 to 4.50056e-005
Heightened Def Con from 4.50335e-005 to 4.50336e-005
Heightened Def Con from 4.50694e-005 to 4.50695e-005
Heightened Def Con from 4.50704e-005 to 4.50724e-005
Heightened Def Con from 4.52787e-005 to 4.52797e-005
Heightened Def Con from 4.52841e-005 to 4.52851e-005
Heightened Def Con from 4.52856e-005 +to 4.52876e-005
Heightened Def Con from 4.52915e-005 to 4.52925e-005
Heightened Def Con from 4.53196e-005 to 4.53206e-005
Heightened Def Con from 4.53233e-005 to 4.53253e-005
Heightened Def Con from 4.53278e-005 to 4.53288e-005
Heightened Def Con from 4.53717e-005 to 4.53737e-005
Heightened Def Con from 4.53738e-005 +to 4.53739e-005
Heightened Def Con from 4.54204e-005 to 4.54224e-005
Heightened Def Con from 4.54224e-005 to 4.54224e-005
Heightened Def Con from 4.54224e-005 to 4.54225e-005
Heightened Def Con from 4.54285e-005 to 4.54295e-005
Heightened Def Con from 4.5447e-005 to 4.54471e-005
Heightened Def Con from 4.54471e-005 to 4.54472e-005
Heightened Def Con from 4.58931e-005 to 4.58932e-005
Heightened Def Con from 4.58945e-005 to 4.58965e-005
Heightened Def Con from 4.59009e-005 to 4.59019e-005
Heightened Def Con from 4.59203e-005 to 4.59213e-005
Heightened Def Con from 4.61047e-005 to 4.61057e-005
Heightened Def Con from 4.61057e-005 to 4.61058e-005
Heightened Def Con from 4.61058e-005 to 4.61078e-005
Heightened Def Con from 4.61247e-005 to 4.61257e-005
Heightened Def Con from 4.61257e-005 to 4.61277e-005
Heightened Def Con from 4.61544e-005 to 4.61554e-005
Heightened Def Con from 4.61576e-005 +to 4.61586e-005
Heightened Def Con from 4.61996e-005 to 4.62006e-005
Heightened Def Con from 4.62201e-005 to 4.62202e-005
Heightened Def Con from 4.62206e-005 to 4.62226e-005
Heightened Def Con from 4.65942e-005 +to 4.65952e-005
Heightened Def Con from 4.65952e-005 to 4.65962e-005
Heightened Def Con from 4.67048e-005 to 4.67058e-005
Heightened Def Con from 4.6921e-005 to 4.6923e-005
Heightened Def Con from 4.69233e-005 to 4.69243e-005
Heightened Def Con from 4.69348e-005 to 4.69368e-005
Heightened Def Con from 4.6965e-005 to 4.6967e-005
Heightened Def Con from 4.69733e-005 to 4.69743e-005
Heightened Def Con from 4.6976e-005 to 4.69772e-005
Heightened Def Con from 4.69863e-005 to 4.69873e-005
Heightened Def Con from 4.70162e-005 to 4.70173e-005
Heightened Def Con from 4.70215e-005 to 4.70235e-005
Heightened Def Con from 4.70242e-005 to 4.70242e-005
Heightened Def Con from 4.70264e-005 to 4.70274e-005
Heightened Def Con from 4.70354e-005 to 4.70374e-005
Heightened Def Con from 4.70842e-005 to 4.70852e-005
Heightened Def Con from 4.70949e-005 to 4.7096e-005
Heightened Def Con from 4.71375e-005 to 4.71395e-005
Heightened Def Con from 4.71398e-005 +to 4.71408e-005
Heightened Def Con from 4.7293e-005 to 4.7294e-005
Heightened Def Con from 4.73291e-005 to 4.73292e-005
Heightened Def Con from 4.73293e-005 to 4.73313e-005
Heightened Def Con from 4.73444e-005 to 4.73444e-005
Heightened Def Con from 4.73444e-005 +to 4.73454e-005
Heightened Def Con from 4.73649e-005 to 4.73659e-005
Heightened Def Con from 4.75018e-005 to 4.75028e-005
Heightened Def Con from 4.75057e-005 to 4.75057e-005
Heightened Def Con from 4.75057e-005 +to 4.75058e-005
Heightened Def Con from 4.75058e-005 to 4.7506e-005
Heightened Def Con from 4.75062e-005 to 4.75063e-005
Heightened Def Con from 4.78423e-005 to 4.78424e-005
Heightened Def Con from 4.78445e-005 to 4.78455e-005
Heightened Def Con from 4.78486e-005 to 4.78506e-005
Heightened Def Con from 4.83041e-005 to 4.83041e-005
Heightened Def Con from 4.83041e-005 to 4.83061e-005
Heightened Def Con from 4.83427e-005 to 4.83437e-005
Heightened Def Con from 4.83466e-005 to 4.83468e-005
Heightened Def Con from 4.83602e-005 ++to 4.83612e-005
Heightened Def Con from 4.83623e-005 to 4.83643e-005
Heightened Def Con from 4.83675e-005 to 4.83676e-005
Heightened Def Con from 4.83836e-005 to 4.83847e-005
Heightened Def Con from 4.83851e-005 to 4.83861e-005
Heightened Def Con from 4.83863e-005 to 4.83874e-005
Heightened Def Con from 4.83883e-005 to 4.83903e-005
Heightened Def Con from 4.84049e-005 to 4.84059e-005
Heightened Def Con from 4.84101e-005 to 4.84103e-005
Heightened Def Con from 4.84406e-005 to 4.84416e-005
Heightened Def Con from 4.84557e-005 to 4.84577e-005
Heightened Def Con from 4.8458e-005 to 4.8459e-005
Heightened Def Con from 4.84887e-005 to 4.84907e-005
Heightened Def Con from 4.87487e-005 to 4.87488e-005
Heightened Def Con from 4.88571e-005 to 4.88591e-005
Heightened Def Con from 4.89357e-005 to 4.89367e-005
Heightened Def Con from 4.89411e-005 to 4.89422e-005
Heightened Def Con from 4.89427e-005 to 4.89428e-005
Heightened Def Con from 4.89433e-005 to 4.89443e-005
Heightened Def Con from 4.89443e-005 to 4.89463e-005
Heightened Def Con from 4.90129e-005 to 4.90149e-005
Heightened Def Con from 4.90183e-005 to 4.90183e-005
Heightened Def Con from 4.90183e-005 to 4.90203e-005
Heightened Def Con from 4.90228e-005 to 4.90229e-005
Heightened Def Con from 4.90231e-005 +to 4.90251e-005
Heightened Def Con from 4.90251e-005 to 4.90261e-005
Heightened Def Con from 4.92195e-005 to 4.92215e-005
Heightened Def Con from 4.92253e-005 to 4.92255e-005
Heightened Def Con from 4.92262e-005 to 4.92272e-005
Heightened Def Con from 4.93124e-005 to 4.93134e-005
Heightened Def Con from 4.93968e-005 to 4.93969e-005
Heightened Def Con from 4.94642e-005 to 4.94662e-005
Heightened Def Con from 4.94754e-005 to 4.94764e-005
Heightened Def Con from 4.94772e-005 to 4.94772e-005
Heightened Def Con from 4.95619e-005 to 4.95629e-005
Heightened Def Con from 4.95689e-005 to 4.95699e-005
Heightened Def Con from 4.95957e-005 to 4.95967e-005
Heightened Def Con from 4.95971e-005 to 4.95972e-005
Heightened Def Con from 4.96018e-005 to 4.96038e-005
Heightened Def Con from 4.97222e-005 to 4.97232e-005
Heightened Def Con from 4.97517e-005 to 4.97537e-005
Heightened Def Con from 4.97537e-005 to 4.97547e-005
Heightened Def Con from 4.98282e-005 to 4.98302e-005
Heightened Def Con from 4.98973e-005 to 4.98983e-005
Heightened Def Con from 4.99471e-005 to 4.99472e-005
Heightened Def Con from 4.99539e-005 to 4.99549e-005
Heightened Def Con from 4.99566e-005 +to 4.99576e-005
Heightened Def Con from 4.99814e-005 to 4.99814e-005
Heightened Def Con from 4.99817e-005 to 4.99837e-005
Heightened Def Con from 4.99901e-005 to 4.99921e-005
Heightened Def Con from 5.01458e-005 +to 5.01468e-005
Heightened Def Con from 5.01571e-005 to 5.01591e-005
Heightened Def Con from 5.01594e-005 to 5.01614e-005
Heightened Def Con from 5.05503e-005 +to 5.05513e-005
Heightened Def Con from 5.05864e-005 ++to 5.05874e-005
Heightened Def Con from 5.06588e-005 to 5.06608e-005
Heightened Def Con from 5.0692e-005 to 5.0692e-005
Heightened Def Con from 5.06944e-005 to 5.06964e-005
Heightened Def Con from 5.0707e-005 to 5.0707e-005
Heightened Def Con from 5.0708e-005 to 5.071e-005
Heightened Def Con from 5.07493e-005 to 5.07513e-005
Heightened Def Con from 5.07535e-005 to 5.07555e-005
Heightened Def Con from 5.0767e-005 to 5.07672e-005
Heightened Def Con from 5.07672e-005 to 5.07682e-005
Heightened Def Con from 5.07682e-005 to 5.07702e-005
Heightened Def Con from 5.07776e-005 to 5.07776e-005
Heightened Def Con from 5.07778e-005 to 5.07798e-005
Heightened Def Con from 5.07805e-005 to 5.07825e-005
Heightened Def Con from 5.07828e-005 to 5.07838e-005
Heightened Def Con from 5.09444e-005 to 5.09464e-005
Heightened Def Con from 5.09894e-005 to 5.09894e-005
Heightened Def Con from 5.10647e-005 to 5.10657e-005
Heightened Def Con from 5.10657e-005 to 5.10677e-005
Heightened Def Con from 5.11371e-005 to 5.11372e-005
Heightened Def Con from 5.11373e-005 +to 5.11384e-005
Heightened Def Con from 5.11534e-005 to 5.11554e-005
Heightened Def Con from 5.11771e-005 to 5.11781e-005
Heightened Def Con from 5.11781e-005 to 5.11781e-005
Heightened Def Con from 5.11799e-005 to 5.11809e-005
Heightened Def Con from 5.11883e-005 to 5.11884e-005
Heightened Def Con from 5.12595e-005 to 5.12615e-005
Heightened Def Con from 5.12654e-005 to 5.12674e-005
Heightened Def Con from 5.13261e-005 to 5.13271e-005
Heightened Def Con from 5.1334e-005 to 5.13351e-005
Heightened Def Con from 5.13352e-005 +to 5.13372e-005
Heightened Def Con from 5.13375e-005 to 5.13395e-005
Heightened Def Con from 5.14091e-005 to 5.14111e-005
Heightened Def Con from 5.15485e-005 to 5.15505e-005
Heightened Def Con from 5.17367e-005 to 5.17378e-005
Heightened Def Con from 5.17443e-005 to 5.17443e-005
Heightened Def Con from 5.17443e-005 to 5.17463e-005
Heightened Def Con from 5.17884e-005 to 5.17904e-005
Heightened Def Con from 5.18021e-005 to 5.18031e-005
Heightened Def Con from 5.19071e-005 to 5.19081e-005
Heightened Def Con from 5.19594e-005 to 5.19594e-005
Heightened Def Con from 5.19604e-005 to 5.19614e-005
Heightened Def Con from 5.19615e-005 to 5.19616e-005
Heightened Def Con from 5.20044e-005 to 5.20054e-005
Heightened Def Con from 5.20185e-005 to 5.20205e-005
Heightened Def Con from 5.20936e-005 to 5.20956e-005
Heightened Def Con from 5.21028e-005 to 5.21038e-005
Heightened Def Con from 5.21224e-005 to 5.21234e-005
Heightened Def Con from 5.21254e-005 to 5.21256e-005
Heightened Def Con from 5.21264e-005 to 5.21264e-005
Heightened Def Con from 5.21264e-005 to 5.21264e-005
Heightened Def Con from 5.21269e-005 to 5.21289e-005
Heightened Def Con from 5.21411e-005 to 5.21421e-005
Heightened Def Con from 5.21854e-005 to 5.21855e-005
Heightened Def Con from 5.21858e-005 to 5.21858e-005
Heightened Def Con from 5.21858e-005 to 5.21878e-005
Heightened Def Con from 5.22105e-005 to 5.22115e-005
Heightened Def Con from 5.2212e-005 to 5.2212e-005
Heightened Def Con from 5.2212e-005 to 5.2213e-005
Heightened Def Con from 5.22131e-005 to 5.22151e-005
Heightened Def Con from 5.22803e-005 to 5.22823e-005
Heightened Def Con from 5.23802e-005 to 5.23822e-005
Heightened Def Con from 5.23827e-005 to 5.23847e-005
Heightened Def Con from 5.24e-005 to 5.2402e-005
Heightened Def Con from 5.26849e-005 to 5.26849e-005
Heightened Def Con from 5.26849e-005 to 5.26869e-005
Heightened Def Con from 5.2802e-005 to 5.2803e-005
Heightened Def Con from 5.2803e-005 to 5.2805e-005
Heightened Def Con from 5.315e-005 to 5.3152e-005
Heightened Def Con from 5.31613e-005 +to 5.31633e-005
Heightened Def Con from 5.3301e-005 to 5.3302e-005
Heightened Def Con from 5.33031e-005 to 5.33051e-005
Heightened Def Con from 5.33342e-005 to 5.33352e-005
Heightened Def Con from 5.35384e-005 +to 5.35394e-005
Heightened Def Con from 5.35571e-005 +to 5.35591e-005
Heightened Def Con from 5.381e-005 to 5.38112e-005
Heightened Def Con from 5.38119e-005 to 5.38129e-005
Heightened Def Con from 5.38247e-005 to 5.38257e-005
Heightened Def Con from 5.38307e-005 to 5.38317e-005
Heightened Def Con from 5.38686e-005 to 5.38706e-005
Heightened Def Con from 5.3871e-005 to 5.3873e-005
Heightened Def Con from 5.39734e-005 to 5.39754e-005
Heightened Def Con from 5.42618e-005 to 5.42638e-005
Heightened Def Con from 5.43032e-005 to 5.43042e-005
Heightened Def Con from 5.43444e-005 to 5.43464e-005
Heightened Def Con from 5.4367e-005 to 5.4369e-005
Heightened Def Con from 5.44051e-005 to 5.44052e-005
Heightened Def Con from 5.44079e-005 to 5.44089e-005
Heightened Def Con from 5.4516e-005 to 5.4518e-005
Heightened Def Con from 5.45208e-005 to 5.4521e-005
Heightened Def Con from 5.45291e-005 to 5.45291e-005
Heightened Def Con from 5.45292e-005 to 5.45293e-005
Heightened Def Con from 5.45296e-005 to 5.45316e-005
Heightened Def Con from 5.45659e-005 to 5.4566e-005
Heightened Def Con from 5.4566e-005 to 5.45672e-005
Heightened Def Con from 5.45692e-005 to 5.45692e-005
Heightened Def Con from 5.45704e-005 to 5.45714e-005
Heightened Def Con from 5.47879e-005 to 5.47889e-005
Heightened Def Con from 5.4835e-005 to 5.48362e-005
Heightened Def Con from 5.4869e-005 to 5.487e-005
Heightened Def Con from 5.4882e-005 to 5.4882e-005
Heightened Def Con from 5.48822e-005 to 5.48842e-005
Heightened Def Con from 5.48931e-005 to 5.48933e-005
Heightened Def Con from 5.49867e-005 to 5.49877e-005
Heightened Def Con from 5.50111e-005 to 5.50121e-005
Heightened Def Con from 5.50123e-005 to 5.50143e-005
Heightened Def Con from 5.5115e-005 to 5.5117e-005
Heightened Def Con from 5.53796e-005 to 5.53807e-005
Heightened Def Con from 5.53817e-005 to 5.53827e-005
Heightened Def Con from 5.54011e-005 to 5.54013e-005
Heightened Def Con from 5.5404e-005 to 5.5406e-005
Heightened Def Con from 5.54081e-005 to 5.54091e-005
Heightened Def Con from 5.54109e-005 to 5.54129e-005
Heightened Def Con from 5.61283e-005 to 5.61303e-005
Heightened Def Con from 5.61386e-005 to 5.61386e-005
Heightened Def Con from 5.61386e-005 to 5.61406e-005
Heightened Def Con from 5.61798e-005 to 5.61799e-005
Heightened Def Con from 5.61801e-005 to 5.61803e-005
Heightened Def Con from 5.61803e-005 to 5.61813e-005
Heightened Def Con from 5.61837e-005 to 5.61857e-005
Heightened Def Con from 5.61942e-005 to 5.61942e-005
Heightened Def Con from 5.61954e-005 to 5.61965e-005
Heightened Def Con from 5.64189e-005 to 5.64199e-005
Heightened Def Con from 5.6595e-005 to 5.6596e-005
Heightened Def Con from 5.67925e-005 to 5.67936e-005
Heightened Def Con from 5.67936e-005 to 5.67956e-005
Heightened Def Con from 5.68072e-005 to 5.68074e-005
Heightened Def Con from 5.69972e-005 to 5.69973e-005
Heightened Def Con from 5.70152e-005 to 5.70172e-005
Heightened Def Con from 5.71643e-005 to 5.71653e-005
Heightened Def Con from 5.71662e-005 to 5.71682e-005
Heightened Def Con from 5.72162e-005 to 5.72172e-005
Heightened Def Con from 5.72827e-005 to 5.72827e-005
Heightened Def Con from 5.73471e-005 to 5.73491e-005
Heightened Def Con from 5.74477e-005 to 5.74497e-005
Heightened Def Con from 5.74532e-005 to 5.74542e-005
Heightened Def Con from 5.74588e-005 to 5.74598e-005
Heightened Def Con from 5.74607e-005 to 5.74627e-005
Heightened Def Con from 5.75216e-005 +to 5.75226e-005
Heightened Def Con from 5.75226e-005 to 5.75227e-005
Heightened Def Con from 5.75228e-005 to 5.75228e-005
Heightened Def Con from 5.7523e-005 to 5.7525e-005
Heightened Def Con from 5.75713e-005 to 5.75723e-005
Heightened Def Con from 5.75775e-005 to 5.75795e-005
Heightened Def Con from 5.758e-005 to 5.7582e-005
Heightened Def Con from 5.75821e-005 +to 5.75832e-005
Heightened Def Con from 5.7584e-005 to 5.75851e-005
Heightened Def Con from 5.75851e-005 to 5.75871e-005
Heightened Def Con from 5.75876e-005 to 5.75886e-005
Heightened Def Con from 5.79662e-005 to 5.79672e-005
Heightened Def Con from 5.7991e-005 to 5.7991e-005
Heightened Def Con from 5.81696e-005 to 5.81706e-005
Heightened Def Con from 5.82172e-005 to 5.82182e-005
Heightened Def Con from 5.8327e-005 +to 5.83282e-005
Heightened Def Con from 5.83303e-005 to 5.83304e-005
Heightened Def Con from 5.83304e-005 to 5.83304e-005
Heightened Def Con from 5.83304e-005 to 5.83315e-005
Heightened Def Con from 5.83429e-005 to 5.83449e-005
Heightened Def Con from 5.8345e-005 to 5.83451e-005
Heightened Def Con from 5.83465e-005 +to 5.83475e-005
Heightened Def Con from 5.83728e-005 to 5.83748e-005
Heightened Def Con from 5.8445e-005 to 5.8445e-005
Heightened Def Con from 5.847e-005 to 5.8471e-005
Heightened Def Con from 5.84727e-005 to 5.84737e-005
Heightened Def Con from 5.84738e-005 +to 5.84748e-005
Heightened Def Con from 5.87998e-005 to 5.87999e-005
Heightened Def Con from 5.87999e-005 to 5.88009e-005
Heightened Def Con from 5.88009e-005 to 5.88019e-005
Heightened Def Con from 5.8805e-005 to 5.8807e-005
Heightened Def Con from 5.89794e-005 to 5.89814e-005
Heightened Def Con from 5.92099e-005 to 5.92119e-005
Heightened Def Con from 5.94937e-005 to 5.94957e-005
Heightened Def Con from 5.95315e-005 to 5.95326e-005
Heightened Def Con from 5.95326e-005 to 5.95337e-005
Heightened Def Con from 5.95337e-005 to 5.95338e-005
Heightened Def Con from 5.95346e-005 to 5.95366e-005
Heightened Def Con from 5.9632e-005 to 5.96321e-005
Heightened Def Con from 5.98247e-005 to 5.98267e-005
Heightened Def Con from 5.98504e-005 to 5.98516e-005
Heightened Def Con from 5.9852e-005 to 5.9853e-005
Heightened Def Con from 5.9861e-005 to 5.9863e-005
Heightened Def Con from 5.99592e-005 to 5.99602e-005
Heightened Def Con from 6.01109e-005 to 6.01129e-005
Heightened Def Con from 6.0115e-005 to 6.0115e-005
Heightened Def Con from 6.0115e-005 to 6.0115e-005
Heightened Def Con from 6.01195e-005 to 6.01215e-005
Heightened Def Con from 6.0145e-005 to 6.01462e-005
Heightened Def Con from 6.01462e-005 to 6.01473e-005
Heightened Def Con from 6.01483e-005 to 6.01493e-005
Heightened Def Con from 6.01493e-005 to 6.01503e-005
Heightened Def Con from 6.06306e-005 to 6.06316e-005
Heightened Def Con from 6.06692e-005 to 6.06693e-005
Heightened Def Con from 6.06719e-005 to 6.06729e-005
Heightened Def Con from 6.06729e-005 to 6.06739e-005
Heightened Def Con from 6.07444e-005 to 6.07445e-005
Heightened Def Con from 6.07446e-005 to 6.07446e-005
Heightened Def Con from 6.0745e-005 to 6.07451e-005
Heightened Def Con from 6.07451e-005 to 6.07461e-005
Heightened Def Con from 6.07824e-005 to 6.07844e-005
Heightened Def Con from 6.07935e-005 to 6.07955e-005
Heightened Def Con from 6.08337e-005 to 6.08337e-005
Heightened Def Con from 6.08368e-005 +to 6.08388e-005
Heightened Def Con from 6.11974e-005 to 6.11984e-005
Heightened Def Con from 6.11985e-005 +to 6.11995e-005
Heightened Def Con from 6.11998e-005 +to 6.12018e-005
Heightened Def Con from 6.1202e-005 to 6.1203e-005
Heightened Def Con from 6.13172e-005 to 6.13173e-005
Heightened Def Con from 6.13224e-005 to 6.13244e-005
Heightened Def Con from 6.13433e-005 to 6.13434e-005
Heightened Def Con from 6.13497e-005 to 6.13517e-005
Heightened Def Con from 6.14066e-005 to 6.14086e-005
Heightened Def Con from 6.14747e-005 to 6.14757e-005
Heightened Def Con from 6.15104e-005 to 6.15104e-005
Heightened Def Con from 6.15104e-005 to 6.15105e-005
Heightened Def Con from 6.15107e-005 to 6.15107e-005
Heightened Def Con from 6.15107e-005 to 6.15108e-005
Heightened Def Con from 6.15109e-005 +to 6.15129e-005
Heightened Def Con from 6.15698e-005 to 6.157e-005
Heightened Def Con from 6.15703e-005 to 6.15723e-005
Heightened Def Con from 6.15723e-005 to 6.15733e-005
Heightened Def Con from 6.16046e-005 to 6.16056e-005
Heightened Def Con from 6.16372e-005 to 6.16392e-005
Heightened Def Con from 6.16412e-005 to 6.16422e-005
Heightened Def Con from 6.16597e-005 to 6.16607e-005
Heightened Def Con from 6.16619e-005 to 6.16639e-005
Heightened Def Con from 6.16642e-005 to 6.16652e-005
Heightened Def Con from 6.16794e-005 to 6.16804e-005
Heightened Def Con from 6.17126e-005 to 6.17127e-005
Heightened Def Con from 6.17166e-005 to 6.17176e-005
Heightened Def Con from 6.17207e-005 to 6.17208e-005
Heightened Def Con from 6.17208e-005 to 6.17209e-005
Heightened Def Con from 6.17219e-005 to 6.1723e-005
Heightened Def Con from 6.17272e-005 to 6.17292e-005
Heightened Def Con from 6.18053e-005 to 6.18073e-005
Heightened Def Con from 6.18099e-005 +to 6.18109e-005
Heightened Def Con from 6.1837e-005 to 6.1838e-005
Heightened Def Con from 6.1841e-005 to 6.18411e-005
Heightened Def Con from 6.18415e-005 to 6.18435e-005
Heightened Def Con from 6.18455e-005 to 6.18465e-005
Heightened Def Con from 6.20112e-005 to 6.20113e-005
Heightened Def Con from 6.20114e-005 to 6.20124e-005
Heightened Def Con from 6.20363e-005 to 6.20373e-005
Heightened Def Con from 6.20625e-005 to 6.20636e-005
Heightened Def Con from 6.20638e-005 to 6.20639e-005
Heightened Def Con from 6.20639e-005 to 6.2064e-005
Heightened Def Con from 6.21322e-005 to 6.21342e-005
Heightened Def Con from 6.21358e-005 to 6.21378e-005
Heightened Def Con from 6.24274e-005 to 6.24275e-005
Heightened Def Con from 6.24275e-005 to 6.24285e-005
Heightened Def Con from 6.32759e-005 to 6.3276e-005
Heightened Def Con from 6.32777e-005 to 6.32779e-005
Heightened Def Con from 6.32787e-005 to 6.32797e-005
Heightened Def Con from 6.32799e-005 to 6.32809e-005
Heightened Def Con from 6.36792e-005 to 6.36802e-005
Heightened Def Con from 6.37083e-005 to 6.37103e-005
Heightened Def Con from 6.37164e-005 to 6.37165e-005
Heightened Def Con from 6.37173e-005 to 6.37183e-005
Heightened Def Con from 6.37203e-005 to 6.37213e-005
Heightened Def Con from 6.37216e-005 to 6.37236e-005
Heightened Def Con from 6.39039e-005 to 6.39059e-005
Heightened Def Con from 6.39226e-005 to 6.39227e-005
Heightened Def Con from 6.39228e-005 to 6.3923e-005
Heightened Def Con from 6.39232e-005 to 6.39252e-005
Heightened Def Con from 6.39283e-005 to 6.39294e-005
Heightened Def Con from 6.39296e-005 to 6.39306e-005
Heightened Def Con from 6.39758e-005 to 6.39758e-005
Heightened Def Con from 6.39775e-005 to 6.39795e-005
Heightened Def Con from 6.40323e-005 to 6.40333e-005
Heightened Def Con from 6.40335e-005 to 6.40336e-005
Heightened Def Con from 6.40341e-005 to 6.40361e-005
Heightened Def Con from 6.40361e-005 to 6.40362e-005
Heightened Def Con from 6.40363e-005 to 6.40383e-005
Heightened Def Con from 6.40473e-005 to 6.40483e-005
Heightened Def Con from 6.41716e-005 to 6.41726e-005
Heightened Def Con from 6.41768e-005 to 6.41768e-005
Heightened Def Con from 6.41769e-005 to 6.41779e-005
Heightened Def Con from 6.41872e-005 to 6.41892e-005
Heightened Def Con from 6.41964e-005 to 6.41984e-005
Heightened Def Con from 6.42294e-005 to 6.42296e-005
Heightened Def Con from 6.42466e-005 to 6.42476e-005
Heightened Def Con from 6.42492e-005 to 6.42502e-005
Heightened Def Con from 6.44917e-005 to 6.44937e-005
Heightened Def Con from 6.44956e-005 to 6.44958e-005
Heightened Def Con from 6.44958e-005 to 6.44958e-005
Heightened Def Con from 6.44985e-005 to 6.44986e-005
Heightened Def Con from 6.44994e-005 to 6.45004e-005
Heightened Def Con from 6.49455e-005 to 6.49475e-005
Heightened Def Con from 6.49672e-005 to 6.49673e-005
Heightened Def Con from 6.49677e-005 to 6.49697e-005
Heightened Def Con from 6.49837e-005 to 6.49838e-005
Heightened Def Con from 6.49842e-005 to 6.49852e-005
Heightened Def Con from 6.53098e-005 to 6.53108e-005
Heightened Def Con from 6.53108e-005 to 6.53109e-005
Heightened Def Con from 6.53109e-005 to 6.5311e-005
Heightened Def Con from 6.53267e-005 to 6.53287e-005
Heightened Def Con from 6.53676e-005 to 6.53696e-005
Heightened Def Con from 6.56601e-005 to 6.56602e-005
Heightened Def Con from 6.56602e-005 to 6.56612e-005
Heightened Def Con from 6.60266e-005 to 6.60286e-005
Heightened Def Con from 6.60327e-005 +to 6.60347e-005
Heightened Def Con from 6.60414e-005 to 6.60434e-005
Heightened Def Con from 6.60525e-005 to 6.60545e-005
Heightened Def Con from 6.60545e-005 to 6.60565e-005
Heightened Def Con from 6.60574e-005 to 6.60575e-005
Heightened Def Con from 6.60576e-005 to 6.60576e-005
Heightened Def Con from 6.60847e-005 to 6.60867e-005
Heightened Def Con from 6.61247e-005 to 6.61267e-005
Heightened Def Con from 6.61438e-005 to 6.61458e-005
Heightened Def Con from 6.64187e-005 to 6.64197e-005
Heightened Def Con from 6.64197e-005 to 6.64209e-005
Heightened Def Con from 6.64212e-005 to 6.64224e-005
Heightened Def Con from 6.68049e-005 to 6.68059e-005
Heightened Def Con from 6.68418e-005 to 6.68438e-005
Heightened Def Con from 6.68463e-005 to 6.68463e-005
Heightened Def Con from 6.68464e-005 to 6.68464e-005
Heightened Def Con from 6.68466e-005 to 6.68486e-005
Heightened Def Con from 6.68493e-005 to 6.68503e-005
Heightened Def Con from 6.6851e-005 to 6.6853e-005
Heightened Def Con from 6.73111e-005 to 6.73121e-005
Heightened Def Con from 6.76949e-005 to 6.7695e-005
Heightened Def Con from 6.76954e-005 to 6.76964e-005
Heightened Def Con from 6.76978e-005 to 6.76988e-005
Heightened Def Con from 6.76989e-005 to 6.7699e-005
Heightened Def Con from 6.76994e-005 to 6.76994e-005
Heightened Def Con from 6.77002e-005 to 6.77012e-005
Heightened Def Con from 6.77032e-005 to 6.77042e-005
Heightened Def Con from 6.78401e-005 to 6.78411e-005
Heightened Def Con from 6.78432e-005 to 6.78434e-005
Heightened Def Con from 6.78451e-005 to 6.78461e-005
Heightened Def Con from 6.78497e-005 to 6.78498e-005
Heightened Def Con from 6.78513e-005 to 6.78533e-005
Heightened Def Con from 6.79728e-005 to 6.79738e-005
Heightened Def Con from 6.80385e-005 to 6.80405e-005
Heightened Def Con from 6.80931e-005 to 6.80931e-005
Heightened Def Con from 6.80931e-005 to 6.80951e-005
Heightened Def Con from 6.81165e-005 to 6.81185e-005
Heightened Def Con from 6.84168e-005 to 6.84179e-005
Heightened Def Con from 6.84195e-005 to 6.84215e-005
Heightened Def Con from 6.8422e-005 to 6.84231e-005
Heightened Def Con from 6.84237e-005 to 6.84238e-005
Heightened Def Con from 6.84238e-005 to 6.84258e-005
Heightened Def Con from 6.85985e-005 to 6.85995e-005
Heightened Def Con from 6.87172e-005 to 6.87182e-005
Heightened Def Con from 6.87182e-005 to 6.87202e-005
Heightened Def Con from 6.87394e-005 to 6.87414e-005
Heightened Def Con from 6.8936e-005 to 6.8936e-005
Heightened Def Con from 6.89363e-005 to 6.89383e-005
Heightened Def Con from 6.91961e-005 to 6.91971e-005
Heightened Def Con from 6.91971e-005 to 6.91972e-005
Heightened Def Con from 6.91972e-005 to 6.91992e-005
Heightened Def Con from 6.92329e-005 to 6.92349e-005
Heightened Def Con from 6.93202e-005 +to 6.93212e-005
Heightened Def Con from 6.93215e-005 to 6.93225e-005
Heightened Def Con from 6.96812e-005 to 6.96812e-005
Heightened Def Con from 6.96818e-005 to 6.96838e-005
Heightened Def Con from 6.97327e-005 to 6.97337e-005
Heightened Def Con from 6.97343e-005 to 6.97353e-005
Heightened Def Con from 6.97375e-005 to 6.97376e-005
Heightened Def Con from 6.97376e-005 to 6.97386e-005
Heightened Def Con from 6.97525e-005 to 6.97535e-005
Heightened Def Con from 6.97563e-005 to 6.97573e-005
Heightened Def Con from 6.97595e-005 to 6.97605e-005
Heightened Def Con from 6.97607e-005 to 6.97617e-005
Heightened Def Con from 7.00154e-005 to 7.00174e-005
Heightened Def Con from 7.01083e-005 to 7.01094e-005
Heightened Def Con from 7.01966e-005 to 7.01976e-005
Heightened Def Con from 7.03314e-005 to 7.03324e-005
Heightened Def Con from 7.0335e-005 to 7.0336e-005
Heightened Def Con from 7.03382e-005 to 7.03383e-005
Heightened Def Con from 7.03427e-005 to 7.03447e-005
Heightened Def Con from 7.03785e-005 to 7.03805e-005
Heightened Def Con from 7.03865e-005 to 7.03875e-005
Heightened Def Con from 7.04049e-005 to 7.04069e-005
Heightened Def Con from 7.04089e-005 to 7.04099e-005
Heightened Def Con from 7.04469e-005 to 7.0447e-005
Heightened Def Con from 7.06862e-005 to 7.06872e-005
Heightened Def Con from 7.07697e-005 to 7.07708e-005
Heightened Def Con from 7.07709e-005 to 7.07729e-005
Heightened Def Con from 7.07854e-005 to 7.07874e-005
Heightened Def Con from 7.08213e-005 to 7.08223e-005
Heightened Def Con from 7.08244e-005 to 7.08245e-005
Heightened Def Con from 7.08393e-005 to 7.08403e-005
Heightened Def Con from 7.0843e-005 to 7.0843e-005
Heightened Def Con from 7.0843e-005 to 7.0845e-005
Heightened Def Con from 7.11006e-005 to 7.11016e-005
Heightened Def Con from 7.11794e-005 to 7.11814e-005
Heightened Def Con from 7.15502e-005 to 7.15502e-005
Heightened Def Con from 7.15502e-005 to 7.15502e-005
Heightened Def Con from 7.15507e-005 to 7.15517e-005
Heightened Def Con from 7.15774e-005 to 7.15775e-005
Heightened Def Con from 7.15778e-005 +to 7.15779e-005
Heightened Def Con from 7.15789e-005 to 7.15791e-005
Heightened Def Con from 7.17129e-005 to 7.17149e-005
Heightened Def Con from 7.17871e-005 to 7.17872e-005
Heightened Def Con from 7.17968e-005 to 7.17978e-005
Heightened Def Con from 7.18417e-005 to 7.18429e-005
Heightened Def Con from 7.18429e-005 to 7.18449e-005
Heightened Def Con from 7.18661e-005 to 7.18681e-005
Heightened Def Con from 7.19251e-005 to 7.19271e-005
Heightened Def Con from 7.1948e-005 to 7.1949e-005
Heightened Def Con from 7.19713e-005 to 7.19733e-005
Heightened Def Con from 7.19853e-005 to 7.19863e-005
Heightened Def Con from 7.19884e-005 to 7.19904e-005
Heightened Def Con from 7.20726e-005 to 7.20727e-005
Heightened Def Con from 7.20736e-005 to 7.20747e-005
Heightened Def Con from 7.20748e-005 to 7.20758e-005
Heightened Def Con from 7.20981e-005 to 7.20991e-005
Heightened Def Con from 7.21047e-005 to 7.21057e-005
Heightened Def Con from 7.21059e-005 to 7.2106e-005
Heightened Def Con from 7.21061e-005 to 7.21062e-005
Heightened Def Con from 7.21062e-005 to 7.21082e-005
Heightened Def Con from 7.21222e-005 to 7.21242e-005
Heightened Def Con from 7.2186e-005 to 7.2188e-005
Heightened Def Con from 7.21901e-005 to 7.21903e-005
Heightened Def Con from 7.21903e-005 to 7.21913e-005
Heightened Def Con from 7.22759e-005 to 7.22761e-005
Heightened Def Con from 7.22763e-005 to 7.22773e-005
Heightened Def Con from 7.22794e-005 to 7.22804e-005
Heightened Def Con from 7.22892e-005 to 7.22902e-005
Heightened Def Con from 7.24054e-005 to 7.24064e-005
Heightened Def Con from 7.24093e-005 to 7.24094e-005
Heightened Def Con from 7.24094e-005 to 7.24095e-005
Heightened Def Con from 7.24108e-005 to 7.24108e-005
Heightened Def Con from 7.24109e-005 to 7.24109e-005
Heightened Def Con from 7.24112e-005 to 7.24132e-005
Heightened Def Con from 7.24828e-005 to 7.24838e-005
Heightened Def Con from 7.2513e-005 to 7.2514e-005
Heightened Def Con from 7.26117e-005 to 7.26137e-005
Heightened Def Con from 7.27226e-005 to 7.27236e-005
Heightened Def Con from 7.28375e-005 to 7.28395e-005
Heightened Def Con from 7.28485e-005 +to 7.28505e-005
Heightened Def Con from 7.28532e-005 to 7.28552e-005
Heightened Def Con from 7.28595e-005 to 7.28596e-005
Heightened Def Con from 7.28596e-005 to 7.28606e-005
Heightened Def Con from 7.30349e-005 to 7.30359e-005
Heightened Def Con from 7.30683e-005 to 7.30703e-005
Heightened Def Con from 7.33254e-005 to 7.33255e-005
Heightened Def Con from 7.33434e-005 to 7.33435e-005
Heightened Def Con from 7.33443e-005 to 7.33463e-005
Heightened Def Con from 7.35276e-005 to 7.35296e-005
Heightened Def Con from 7.35318e-005 to 7.35329e-005
Heightened Def Con from 7.35331e-005 to 7.35341e-005
Heightened Def Con from 7.3956e-005 to 7.3957e-005
Heightened Def Con from 7.40027e-005 to 7.40047e-005
Heightened Def Con from 7.41301e-005 to 7.41321e-005
Heightened Def Con from 7.42395e-005 to 7.42415e-005
Heightened Def Con from 7.42577e-005 to 7.42587e-005
Heightened Def Con from 7.42901e-005 to 7.42911e-005
Heightened Def Con from 7.42925e-005 to 7.42926e-005
Heightened Def Con from 7.42939e-005 +to 7.4295e-005
Heightened Def Con from 7.42955e-005 to 7.42975e-005
Heightened Def Con from 7.4335e-005 to 7.43352e-005
Heightened Def Con from 7.43353e-005 to 7.43363e-005
Heightened Def Con from 7.46203e-005 to 7.46223e-005
Heightened Def Con from 7.46338e-005 to 7.46358e-005
[...]
Heightened Def Con from 0.0800669 to 0.0800669
Heightened Def Con from 0.0800669 to 0.0800669
Heightened Def Con from 0.0800669 to 0.0800669
Heightened Def Con from 0.0800669 to 0.0800669
Heightened Def Con from 0.0800669 to 0.0800669
Heightened Def Con from 0.080067 to 0.080067
Heightened Def Con from 0.0800673 to 0.0800673
Heightened Def Con from 0.0800674 to 0.0800674
Heightened Def Con from 0.0800674 to 0.0800674
Heightened Def Con from 0.0800674 to 0.0800674
Heightened Def Con from 0.0800674 to 0.0800674
Heightened Def Con from 0.0800679 to 0.0800679
Heightened Def Con from 0.0800679 to 0.0800679
Heightened Def Con from 0.0800679 to 0.0800679
Heightened Def Con from 0.0800681 to 0.0800681
Heightened Def Con from 0.0800681 +to 0.0800681
Heightened Def Con from 0.0800681 to 0.0800681
Heightened Def Con from 0.0800682 to 0.0800682
Heightened Def Con from 0.0800682 +to 0.0800682
Heightened Def Con from 0.0800682 to 0.0800682
Heightened Def Con from 0.0800682 to 0.0800682
Heightened Def Con from 0.0800682 to 0.0800683
Heightened Def Con from 0.0800685 to 0.0800685
Heightened Def Con from 0.0800685 to 0.0800685
Heightened Def Con from 0.0800686 to 0.0800686
Heightened Def Con from 0.0800686 to 0.0800686
Heightened Def Con from 0.0800689 to 0.0800689
Heightened Def Con from 0.0800689 to 0.0800689
Heightened Def Con from 0.080069 to 0.080069
Heightened Def Con from 0.080069 to 0.080069
Heightened Def Con from 0.080069 to 0.080069
Heightened Def Con from 0.080069 to 0.080069
Heightened Def Con from 0.0800691 to 0.0800691
Heightened Def Con from 0.0800691 to 0.0800691
Heightened Def Con from 0.0800691 to 0.0800691
Heightened Def Con from 0.0800691 to 0.0800691
Heightened Def Con from 0.0800691 to 0.0800691
Heightened Def Con from 0.0800691 to 0.0800691
Heightened Def Con from 0.0800692 to 0.0800692
Heightened Def Con from 0.0800692 to 0.0800692
Heightened Def Con from 0.0800693 to 0.0800693
Heightened Def Con from 0.0800694 to 0.0800694
Heightened Def Con from 0.0800694 to 0.0800694
Heightened Def Con from 0.0800695 to 0.0800695
Heightened Def Con from 0.0800695 to 0.0800695
Heightened Def Con from 0.0800695 to 0.0800695
Heightened Def Con from 0.0800697 to 0.0800697
Heightened Def Con from 0.0800697 to 0.0800697
Heightened Def Con from 0.0800697 to 0.0800697
Heightened Def Con from 0.0800697 to 0.0800697
Heightened Def Con from 0.0800697 +to 0.0800697
Heightened Def Con from 0.0800697 to 0.0800697
Heightened Def Con from 0.0800697 to 0.0800697
Heightened Def Con from 0.0800697 to 0.0800698
Heightened Def Con from 0.0800699 to 0.0800699
Heightened Def Con from 0.0800706 to 0.0800706
Heightened Def Con from 0.0800706 to 0.0800706
Heightened Def Con from 0.0800706 to 0.0800706
Heightened Def Con from 0.0800706 to 0.0800706
Heightened Def Con from 0.0800707 to 0.0800707
Heightened Def Con from 0.0800711 to 0.0800711
Heightened Def Con from 0.0800711 to 0.0800711
Heightened Def Con from 0.0800711 to 0.0800711
Heightened Def Con from 0.0800712 +to 0.0800712
Heightened Def Con from 0.0800712 to 0.0800712
Heightened Def Con from 0.0800712 to 0.0800712
Heightened Def Con from 0.0800712 to 0.0800712
Heightened Def Con from 0.0800712 to 0.0800712
Heightened Def Con from 0.0800712 to 0.0800712
Heightened Def Con from 0.0800713 to 0.0800713
Heightened Def Con from 0.0800713 +to 0.0800713
Heightened Def Con from 0.0800713 to 0.0800713
Heightened Def Con from 0.0800714 to 0.0800714
Heightened Def Con from 0.0800716 to 0.0800716
Heightened Def Con from 0.0800716 to 0.0800716
Heightened Def Con from 0.0800717 to 0.0800717
Heightened Def Con from 0.0800717 to 0.0800717
Heightened Def Con from 0.0800717 to 0.0800717
Heightened Def Con from 0.0800717 to 0.0800717
Heightened Def Con from 0.0800719 to 0.0800719
Heightened Def Con from 0.0800719 to 0.0800719
Heightened Def Con from 0.0800719 to 0.0800719
Heightened Def Con from 0.0800719 to 0.0800719
Heightened Def Con from 0.0800719 to 0.0800719
Heightened Def Con from 0.0800719 to 0.0800719
Heightened Def Con from 0.080072 to 0.080072
Heightened Def Con from 0.080072 to 0.080072
Heightened Def Con from 0.0800722 to 0.0800722
Heightened Def Con from 0.0800724 to 0.0800724
Heightened Def Con from 0.0800725 to 0.0800725
Heightened Def Con from 0.0800725 to 0.0800725
Heightened Def Con from 0.0800725 to 0.0800725
Heightened Def Con from 0.0800729 to 0.0800729
Heightened Def Con from 0.080073 to 0.080073
Heightened Def Con from 0.0800731 to 0.0800731
Heightened Def Con from 0.0800731 to 0.0800731
Heightened Def Con from 0.0800731 to 0.0800731
Heightened Def Con from 0.0800736 to 0.0800736
Heightened Def Con from 0.0800736 to 0.0800736
Heightened Def Con from 0.0800736 to 0.0800736
Heightened Def Con from 0.0800737 to 0.0800737
Heightened Def Con from 0.0800737 +to 0.0800737
Heightened Def Con from 0.0800737 to 0.0800737
Heightened Def Con from 0.0800738 to 0.0800738
Heightened Def Con from 0.0800738 to 0.0800738
Heightened Def Con from 0.0800738 to 0.0800738
Heightened Def Con from 0.0800739 to 0.0800739
Heightened Def Con from 0.080074 to 0.080074
Heightened Def Con from 0.080074 to 0.080074
Heightened Def Con from 0.080074 to 0.080074
Heightened Def Con from 0.0800741 to 0.0800741
Heightened Def Con from 0.0800741 to 0.0800741
Heightened Def Con from 0.0800742 to 0.0800742
Heightened Def Con from 0.0800742 to 0.0800742
Heightened Def Con from 0.0800743 to 0.0800743
Heightened Def Con from 0.0800746 +to 0.0800746
Heightened Def Con from 0.0800746 to 0.0800746
Heightened Def Con from 0.0800746 to 0.0800746
Heightened Def Con from 0.0800746 to 0.0800746
Heightened Def Con from 0.0800746 to 0.0800746
Heightened Def Con from 0.0800746 to 0.0800746
Heightened Def Con from 0.0800746 to 0.0800746
Heightened Def Con from 0.0800746 to 0.0800746
Heightened Def Con from 0.0800748 to 0.0800748
Heightened Def Con from 0.0800749 to 0.0800749
Heightened Def Con from 0.0800749 to 0.0800749
Heightened Def Con from 0.0800749 to 0.0800749
Heightened Def Con from 0.0800749 to 0.0800749
Heightened Def Con from 0.0800749 to 0.0800749
Heightened Def Con from 0.0800749 to 0.0800749
Heightened Def Con from 0.0800749 to 0.0800749
Heightened Def Con from 0.0800751 to 0.0800751
Heightened Def Con from 0.0800751 to 0.0800751
Heightened Def Con from 0.0800751 to 0.0800751
Heightened Def Con from 0.0800752 to 0.0800752
Heightened Def Con from 0.0800755 to 0.0800755
Heightened Def Con from 0.0800759 to 0.0800759
Heightened Def Con from 0.0800759 to 0.0800759
Heightened Def Con from 0.0800759 to 0.0800759
Heightened Def Con from 0.0800763 to 0.0800763
Heightened Def Con from 0.0800766 to 0.0800766
Heightened Def Con from 0.0800766 to 0.0800766
Heightened Def Con from 0.0800766 to 0.0800766
Heightened Def Con from 0.0800766 to 0.0800766
Heightened Def Con from 0.0800766 to 0.0800766
Heightened Def Con from 0.0800766 to 0.0800766
Heightened Def Con from 0.0800766 to 0.0800766
Heightened Def Con from 0.0800766 to 0.0800766
Heightened Def Con from 0.0800766 to 0.0800766
Heightened Def Con from 0.0800769 to 0.0800769
Heightened Def Con from 0.0800769 to 0.0800769
Heightened Def Con from 0.0800769 to 0.0800769
Heightened Def Con from 0.080077 to 0.080077
Heightened Def Con from 0.080077 to 0.080077
Heightened Def Con from 0.080077 to 0.080077
Heightened Def Con from 0.080077 to 0.080077
Heightened Def Con from 0.0800771 to 0.0800771
Heightened Def Con from 0.0800771 to 0.0800771
Heightened Def Con from 0.0800771 to 0.0800771
Heightened Def Con from 0.0800773 to 0.0800773
Heightened Def Con from 0.0800773 to 0.0800773
Heightened Def Con from 0.0800773 to 0.0800773
Heightened Def Con from 0.0800773 to 0.0800773
Heightened Def Con from 0.0800773 to 0.0800773
Heightened Def Con from 0.0800773 to 0.0800773
Heightened Def Con from 0.0800775 +to 0.0800775
Heightened Def Con from 0.0800775 to 0.0800775
Heightened Def Con from 0.0800775 to 0.0800775
Heightened Def Con from 0.0800775 to 0.0800775
Heightened Def Con from 0.0800775 to 0.0800775
Heightened Def Con from 0.0800775 to 0.0800775
Heightened Def Con from 0.0800776 to 0.0800776
Heightened Def Con from 0.0800776 to 0.0800776
Heightened Def Con from 0.0800776 to 0.0800776
Heightened Def Con from 0.0800776 to 0.0800776
Heightened Def Con from 0.0800777 to 0.0800777
Heightened Def Con from 0.0800777 to 0.0800777
Heightened Def Con from 0.0800783 to 0.0800783
Heightened Def Con from 0.0800783 to 0.0800783
Heightened Def Con from 0.0800784 to 0.0800784
Heightened Def Con from 0.0800784 to 0.0800784
Heightened Def Con from 0.0800787 to 0.0800787
Heightened Def Con from 0.0800791 to 0.0800791
Heightened Def Con from 0.0800791 to 0.0800791
Heightened Def Con from 0.0800792 to 0.0800792
Heightened Def Con from 0.0800792 to 0.0800792
Heightened Def Con from 0.0800792 to 0.0800792
Heightened Def Con from 0.0800792 to 0.0800792
Heightened Def Con from 0.0800792 to 0.0800792
Heightened Def Con from 0.0800793 to 0.0800793
Heightened Def Con from 0.0800793 to 0.0800793
Heightened Def Con from 0.0800793 to 0.0800793
Heightened Def Con from 0.0800793 to 0.0800793
Heightened Def Con from 0.0800793 to 0.0800793
Heightened Def Con from 0.0800795 to 0.0800795
Heightened Def Con from 0.0800795 to 0.0800795
Heightened Def Con from 0.0800795 to 0.0800795
Heightened Def Con from 0.0800795 to 0.0800795
Heightened Def Con from 0.0800795 to 0.0800795
Heightened Def Con from 0.0800795 to 0.0800795
Heightened Def Con from 0.0800795 to 0.0800795
Heightened Def Con from 0.0800795 to 0.0800795
Heightened Def Con from 0.0800795 to 0.0800795
Heightened Def Con from 0.0800796 to 0.0800796
Heightened Def Con from 0.0800796 to 0.0800796
Heightened Def Con from 0.0800798 to 0.0800798
Heightened Def Con from 0.0800798 to 0.0800798
Heightened Def Con from 0.0800798 to 0.0800798
Heightened Def Con from 0.0800798 to 0.0800798
Heightened Def Con from 0.0800799 to 0.0800799
Heightened Def Con from 0.0800802 to 0.0800802
Heightened Def Con from 0.0800802 to 0.0800802
Heightened Def Con from 0.0800804 to 0.0800804
Heightened Def Con from 0.0800804 to 0.0800804
Heightened Def Con from 0.0800804 to 0.0800804
Heightened Def Con from 0.0800804 to 0.0800804
Heightened Def Con from 0.0800807 to 0.0800807
Heightened Def Con from 0.0800811 to 0.0800811
Heightened Def Con from 0.0800811 +to 0.0800811
Heightened Def Con from 0.0800811 to 0.0800811
Heightened Def Con from 0.0800811 to 0.0800811
Heightened Def Con from 0.0800814 to 0.0800814
Heightened Def Con from 0.0800814 to 0.0800814
Heightened Def Con from 0.0800814 to 0.0800814
Heightened Def Con from 0.0800814 to 0.0800814
Heightened Def Con from 0.0800814 to 0.0800814
Heightened Def Con from 0.0800814 to 0.0800814
Heightened Def Con from 0.0800815 to 0.0800815
Heightened Def Con from 0.0800816 to 0.0800816
Heightened Def Con from 0.0800816 to 0.0800816
Heightened Def Con from 0.0800816 to 0.0800816
Heightened Def Con from 0.0800816 to 0.0800816
Heightened Def Con from 0.0800816 to 0.0800816
Heightened Def Con from 0.0800816 to 0.0800816
Heightened Def Con from 0.0800816 to 0.0800816
Heightened Def Con from 0.0800816 to 0.0800816
Heightened Def Con from 0.0800818 to 0.0800818
Heightened Def Con from 0.080082 to 0.080082
Heightened Def Con from 0.080082 to 0.080082
Heightened Def Con from 0.0800822 to 0.0800822
Heightened Def Con from 0.0800822 to 0.0800822
Heightened Def Con from 0.0800822 to 0.0800822
Heightened Def Con from 0.0800822 to 0.0800822
Heightened Def Con from 0.0800822 to 0.0800822
Heightened Def Con from 0.0800822 to 0.0800822
Heightened Def Con from 0.0800829 to 0.0800829
Heightened Def Con from 0.0800829 +to 0.0800829
Heightened Def Con from 0.0800832 to 0.0800832
Heightened Def Con from 0.0800832 to 0.0800832
Heightened Def Con from 0.0800832 to 0.0800832
Heightened Def Con from 0.0800832 to 0.0800832
Heightened Def Con from 0.0800833 to 0.0800833
Heightened Def Con from 0.0800833 to 0.0800833
Heightened Def Con from 0.0800839 to 0.0800839
Heightened Def Con from 0.0800839 to 0.0800839
Heightened Def Con from 0.0800839 to 0.0800839
Heightened Def Con from 0.080084 to 0.080084
Heightened Def Con from 0.0800842 to 0.0800842
Heightened Def Con from 0.0800842 to 0.0800842
Heightened Def Con from 0.0800842 to 0.0800842
Heightened Def Con from 0.0800846 to 0.0800846
Heightened Def Con from 0.0800847 to 0.0800847
Heightened Def Con from 0.080085 to 0.080085
Heightened Def Con from 0.080085 to 0.080085
Heightened Def Con from 0.0800851 to 0.0800851
Heightened Def Con from 0.0800852 to 0.0800852
Heightened Def Con from 0.0800857 to 0.0800857
Heightened Def Con from 0.0800857 to 0.0800857
Heightened Def Con from 0.0800857 to 0.0800857
Heightened Def Con from 0.0800857 to 0.0800857
Heightened Def Con from 0.0800857 to 0.0800857
Heightened Def Con from 0.0800858 to 0.0800858
Heightened Def Con from 0.0800858 to 0.0800858
Heightened Def Con from 0.0800861 to 0.0800861
Heightened Def Con from 0.0800861 to 0.0800862
Heightened Def Con from 0.0800862 to 0.0800862
Heightened Def Con from 0.0800864 to 0.0800864
Heightened Def Con from 0.0800864 to 0.0800864
Heightened Def Con from 0.0800865 to 0.0800865
Heightened Def Con from 0.0800869 to 0.0800869
Heightened Def Con from 0.0800869 to 0.0800869
Heightened Def Con from 0.0800869 to 0.0800869
Heightened Def Con from 0.0800869 to 0.0800869
Heightened Def Con from 0.0800869 to 0.0800869
Heightened Def Con from 0.080087 to 0.080087
Heightened Def Con from 0.0800871 to 0.0800871
Heightened Def Con from 0.0800871 to 0.0800871
Heightened Def Con from 0.0800871 to 0.0800871
Heightened Def Con from 0.0800873 to 0.0800873
Heightened Def Con from 0.0800874 to 0.0800874
Heightened Def Con from 0.0800874 to 0.0800874
Heightened Def Con from 0.0800875 to 0.0800875
Heightened Def Con from 0.0800875 to 0.0800875
Heightened Def Con from 0.0800875 to 0.0800875
Heightened Def Con from 0.0800875 to 0.0800875
Heightened Def Con from 0.0800876 to 0.0800876
Heightened Def Con from 0.0800876 to 0.0800876
Heightened Def Con from 0.0800876 to 0.0800876
Heightened Def Con from 0.0800877 to 0.0800877
Heightened Def Con from 0.0800877 to 0.0800877
Heightened Def Con from 0.0800877 to 0.0800877
Heightened Def Con from 0.0800879 to 0.0800879
Heightened Def Con from 0.0800879 to 0.0800879
Heightened Def Con from 0.080088 to 0.080088
Heightened Def Con from 0.080088 to 0.080088
Heightened Def Con from 0.080088 to 0.080088
Heightened Def Con from 0.080088 to 0.080088
Heightened Def Con from 0.080088 to 0.080088
Heightened Def Con from 0.080088 to 0.080088
Heightened Def Con from 0.080088 to 0.080088
Heightened Def Con from 0.080088 to 0.080088
Heightened Def Con from 0.0800881 to 0.0800881
Heightened Def Con from 0.0800881 to 0.0800881
Heightened Def Con from 0.0800881 to 0.0800881
Heightened Def Con from 0.0800882 to 0.0800882
Heightened Def Con from 0.0800883 to 0.0800883
Heightened Def Con from 0.0800883 to 0.0800883
Heightened Def Con from 0.0800883 to 0.0800883
Heightened Def Con from 0.0800883 to 0.0800883
Heightened Def Con from 0.0800883 to 0.0800883
Heightened Def Con from 0.0800883 to 0.0800883
Heightened Def Con from 0.0800883 +to 0.0800883
Heightened Def Con from 0.0800883 to 0.0800883
Heightened Def Con from 0.0800883 to 0.0800883
Heightened Def Con from 0.0800883 to 0.0800883
Heightened Def Con from 0.0800883 to 0.0800883
Heightened Def Con from 0.0800883 to 0.0800883
Heightened Def Con from 0.0800883 to 0.0800883
Heightened Def Con from 0.0800883 to 0.0800883
Heightened Def Con from 0.0800883 to 0.0800883
Heightened Def Con from 0.0800883 to 0.0800883
Heightened Def Con from 0.0800883 to 0.0800883
Heightened Def Con from 0.0800889 to 0.0800889
Heightened Def Con from 0.0800891 to 0.0800891
Heightened Def Con from 0.0800891 to 0.0800891
Heightened Def Con from 0.0800891 to 0.0800891
Heightened Def Con from 0.0800891 to 0.0800891
Heightened Def Con from 0.0800891 to 0.0800891
Heightened Def Con from 0.0800891 to 0.0800891
Heightened Def Con from 0.0800891 to 0.0800891
Heightened Def Con from 0.0800891 to 0.0800891
Heightened Def Con from 0.0800891 to 0.0800891
Heightened Def Con from 0.0800891 to 0.0800891
Heightened Def Con from 0.0800896 to 0.0800896
Heightened Def Con from 0.0800897 to 0.0800897
Heightened Def Con from 0.0800897 to 0.0800897
Heightened Def Con from 0.0800897 to 0.0800897
Heightened Def Con from 0.0800897 to 0.0800897
Heightened Def Con from 0.0800897 to 0.0800897
Heightened Def Con from 0.0800898 to 0.0800898
Heightened Def Con from 0.0800898 to 0.0800898
Heightened Def Con from 0.0800898 to 0.0800898
Heightened Def Con from 0.0800898 to 0.0800898
Heightened Def Con from 0.0800901 to 0.0800901
Heightened Def Con from 0.0800901 to 0.0800901
Heightened Def Con from 0.0800901 to 0.0800901
Heightened Def Con from 0.0800901 to 0.0800901
Heightened Def Con from 0.0800901 to 0.0800901
Heightened Def Con from 0.0800902 to 0.0800902
Heightened Def Con from 0.0800902 to 0.0800902
Heightened Def Con from 0.0800902 to 0.0800902
Heightened Def Con from 0.0800902 to 0.0800902
Heightened Def Con from 0.0800903 to 0.0800903
Heightened Def Con from 0.0800904 to 0.0800904
Heightened Def Con from 0.0800904 to 0.0800904
Heightened Def Con from 0.0800904 +to 0.0800904
Heightened Def Con from 0.0800906 to 0.0800906
Heightened Def Con from 0.0800906 to 0.0800906
Heightened Def Con from 0.0800906 to 0.0800906
Heightened Def Con from 0.080091 to 0.080091
Heightened Def Con from 0.0800911 to 0.0800911
Heightened Def Con from 0.0800911 to 0.0800911
Heightened Def Con from 0.0800914 to 0.0800914
Heightened Def Con from 0.0800914 to 0.0800914
Heightened Def Con from 0.0800914 +to 0.0800914
Heightened Def Con from 0.0800914 to 0.0800914
Heightened Def Con from 0.0800914 to 0.0800914
Heightened Def Con from 0.0800914 to 0.0800914
Heightened Def Con from 0.0800914 to 0.0800914
Heightened Def Con from 0.0800915 to 0.0800915
Heightened Def Con from 0.0800915 to 0.0800915
Heightened Def Con from 0.0800915 to 0.0800915
Heightened Def Con from 0.0800915 to 0.0800915
Heightened Def Con from 0.0800915 to 0.0800915
Heightened Def Con from 0.0800915 to 0.0800915
Heightened Def Con from 0.0800916 to 0.0800916
Heightened Def Con from 0.0800916 to 0.0800916
Heightened Def Con from 0.0800929 to 0.0800929
Heightened Def Con from 0.0800929 to 0.0800929
Heightened Def Con from 0.0800929 to 0.0800929
Heightened Def Con from 0.0800929 to 0.0800929
Heightened Def Con from 0.0800929 to 0.0800929
Heightened Def Con from 0.0800929 to 0.0800929
Heightened Def Con from 0.0800929 to 0.0800929
Heightened Def Con from 0.0800933 to 0.0800933
Heightened Def Con from 0.0800933 to 0.0800933
Heightened Def Con from 0.0800933 to 0.0800933
Heightened Def Con from 0.0800934 to 0.0800934
Heightened Def Con from 0.0800934 to 0.0800934
Heightened Def Con from 0.0800935 to 0.0800935
Heightened Def Con from 0.0800935 to 0.0800935
Heightened Def Con from 0.0800939 to 0.0800939
Heightened Def Con from 0.0800939 to 0.0800939
Heightened Def Con from 0.0800939 to 0.0800939
Heightened Def Con from 0.0800939 to 0.0800939
Heightened Def Con from 0.0800939 to 0.0800939
Heightened Def Con from 0.0800939 +to 0.0800939
Heightened Def Con from 0.0800939 to 0.0800939
Heightened Def Con from 0.0800939 to 0.0800939
Heightened Def Con from 0.080094 to 0.080094

Date: Sat Sep 05 00:57:40 2015
Total elapsed time: 72.580 seconds.

tnom = 27
temp = 27
method = modified trap
totiter = 8096370
traniter = 8092684
tranpoints = 1049431
accept = 579532
rejected = 503777
matrix size = 24
fillins = 24
solver = Normal
Matrix Compiler1: 2.68 KB object code size  1.2/0.7/[0.4]
Matrix Compiler2: off  [0.6]/0.8/0.7


