Circuit: * C:\Program Files (x86)\LTC_ALL\LTspiceIV_4.18_multiLibs\examples\LtSpicePlus\Digital\A_Devices\JK_T_Flipflop\JKFF 4bit counter.asc

WARNING: Less than two connections to node LO.  This node is used by V3.
WARNING: Less than two connections to node N001.  This node is used by V6.
Direct Newton iteration for .op point succeeded.
Ignoring empty pin current: Ix(u2:c)
Ignoring empty pin current: Ix(u1:c)
Ignoring empty pin current: Ix(u3:c)
Ignoring empty pin current: Ix(u4:c)
Ignoring empty pin current: Ix(u2:c)
Ignoring empty pin current: Ix(u1:c)
Ignoring empty pin current: Ix(u3:c)
Ignoring empty pin current: Ix(u4:c)

Date: Mon Feb 09 11:32:51 2015
Total elapsed time: 0.171 seconds.

tnom = 27
temp = 27
method = modified trap
totiter = 5948
traniter = 5943
tranpoints = 2748
accept = 2313
rejected = 435
matrix size = 44
fillins = 0
solver = Normal
Thread vector: 3.0/2.4[2] 0.9/1.1[1] 0.9/1.0[1] 0.3/0.7[1]  2592/500
Matrix Compiler1: 678 bytes object code size  0.6/0.3/[0.2]
Matrix Compiler2: 1.73 KB object code size  0.4/0.6/[0.3]


