Circuit: * C:\Program Files (x86)\LTC_ALL\LTspiceIV_4.18_multiLibs\examples\PiezoAcoustic\TestEcho.asc

x3:tload: using linear interpolation because trytocompact option specified
x1:tpzt: using linear interpolation because trytocompact option specified
.OP point found by inspection.

Date: Mon Feb 09 12:07:32 2015
Total elapsed time: 36.719 seconds.

tnom = 27
temp = 27
method = modified trap
totiter = 200206
traniter = 200206
tranpoints = 100060
accept = 100049
rejected = 11
matrix size = 19
fillins = 9
solver = Normal
Matrix Compiler1: 1.08 KB object code size  0.7/0.5/[0.4]
Matrix Compiler2: 1.45 KB object code size  0.4/0.5/[0.3]


