Circuit: * Z:\home\mainster\CODES_local\LTSpice_projects\current_mirrors\current_mirror_fet.asc

WARNING: Less than two connections to node CO.  This node is used by V4.
WARNING: Less than two connections to node N002.  This node is used by V5.
Direct Newton iteration for .op point succeeded.

Date: Sat Feb 14 19:51:41 2015
Total elapsed time: 0.297 seconds.

tnom = 27
temp = 27
method = modified trap
totiter = 14459
traniter = 14443
tranpoints = 4086
accept = 3009
rejected = 1077
matrix size = 33
fillins = 1
solver = Normal
Matrix Compiler1: 1.27 KB object code size  0.8/0.5/[0.3]
Matrix Compiler2: 2.17 KB object code size  0.5/0.7/[0.5]


