Stray ".ends" card: .ends
Circuit: * Z:\home\mainster\CODES_local\LTSpice_projects\diskret_op\discret_opamp_990.asc

WARNING: Less than two connections to node N2.  This node is used by Q2.
WARNING: Less than two connections to node NC_01.  This node is used by Q17.
WARNING: Less than two connections to node NC_02.  This node is used by Q5.
WARNING: Less than two connections to node N001.  This node is used by R36.
Direct Newton iteration failed to find .op point.  (Use ".option noopiter" to skip.)
Starting Gmin stepping
Gmin = 10
Gmin = 1.07374
Gmin = 0.115292
Gmin = 0.0123794
Gmin = 0.00132923
Gmin = 0.000142725
Gmin = 1.5325e-005
Gmin = 1.6455e-006
Gmin = 1.76685e-007
Gmin = 1.89714e-008
Gmin = 2.03704e-009
Gmin = 2.18725e-010
Gmin = 2.34854e-011
Gmin = 2.52173e-012
Gmin = 2.70769e-013
Gmin = 0
Gmin stepping succeeded in finding the operating point.

Direct Newton iteration failed to find .op point.  (Use ".option noopiter" to skip.)
Starting Gmin stepping
Gmin = 10
Gmin = 1.07374
Gmin = 0.115292
Gmin = 0.0123794
Gmin = 0.00132923
Gmin = 0.000142725
Gmin = 1.5325e-005
Gmin = 1.6455e-006
Gmin = 1.76685e-007
Gmin = 1.89714e-008
Gmin = 2.03704e-009
Gmin = 2.18725e-010
Gmin = 2.34854e-011
Gmin = 2.52173e-012
Gmin = 2.70769e-013
Gmin = 0
Gmin stepping succeeded in finding the operating point.


Date: Fri Jun 19 22:07:24 2015
Total elapsed time: 0.673 seconds.

tnom = 27
temp = 27
method = trap
totiter = 13106
traniter = 0
tranpoints = 0
accept = 0
rejected = 0
matrix size = 126
fillins = 104
solver = Normal
Thread vector: 18.6/11.8[2] 0.0/0.0[0] 3.9/3.7[1] 0.8/1.6[1]  2592/500
Matrix Compiler1: 15.6 KB object code size  7.4/3.8/[1.6]
Matrix Compiler2: 12.8 KB object code size  2.6/3.0/[1.1]


