Stray ".ends" card: .ends
Circuit: * Z:\home\mainster\CODES_local\LTSpice_projects\diskret_op\diskret_op_minimal.asc

R1: both pins shorted together -- ignoring.
WARNING: Less than two connections to node N012.  This node is used by R:IDV:P2.
WARNING: Less than two connections to node N013.  This node is used by R2.
Direct Newton iteration failed to find .op point.  (Use ".option noopiter" to skip.)
Starting Gmin stepping
Gmin = 10
Gmin = 1.07374
Gmin = 0.115292
Gmin = 0.0123794
Gmin = 0.00132923
Gmin = 0.000142725
Gmin = 1.5325e-005
Gmin = 1.6455e-006
Gmin = 1.76685e-007
Gmin = 1.89714e-008
vernier = 0.5
Gmin = 3.92947e-009
vernier = 0.25
vernier = 0.125
vernier = 0.0625
vernier = 0.03125
vernier = 0.015625
vernier = 0.0078125
vernier = 0.00390625
vernier = 0.00195313
vernier = 0.000976563
vernier = 0.000488281
Gmin = 4.42065e-009
Gmin = 0
Gmin stepping succeeded in finding the operating point.


Date: Fri Jun 19 15:37:31 2015
Total elapsed time: 0.160 seconds.

tnom = 27
temp = 27
method = trap
totiter = 2411
traniter = 0
tranpoints = 0
accept = 0
rejected = 0
matrix size = 45
fillins = 14
solver = Normal
Matrix Compiler1:     197 opcodes  1.6/1.0/[0.5]
Matrix Compiler2: 4.17 KB object code size  0.9/1.1/[0.4]


