Stray ".ends" card: .ends
Circuit: * Z:\home\mainster\CODES_local\LTSpice_projects\diskret_op\LM358_diskret_source-IV.asc

WARNING: Less than two connections to node N001.  This node is used by R3.

Date: Fri Jun 19 14:58:55 2015
Total elapsed time: 0.030 seconds.

tnom = 27
temp = 27
method = trap
totiter = 114
traniter = 0
tranpoints = 0
accept = 0
rejected = 0
matrix size = 50
fillins = 36
solver = Normal
Matrix Compiler1: 4.09 KB object code size  2.3/1.6/[0.5]
Matrix Compiler2: 4.66 KB object code size  1.0/1.4/[0.5]


