Circuit: * Z:\media\data\CODES\LTspiceWorkspace\LTspice_galvo\aktuell\bauteile_bestimmt\Draft10.asc


Date: Mon Jan 01 19:32:43 2018
Total elapsed time: 0.033 seconds.

tnom = 27
temp = 27
method = trap
totiter = 52
traniter = 0
tranpoints = 0
accept = 0
rejected = 0
matrix size = 4
fillins = 0
solver = Alternate
Matrix Compiler1: 122 bytes object code size
Matrix Compiler2: 280 bytes object code size
