Circuit: * Z:\home\mainster\CODES_local\LTSpice_projects\galvoscanner\aktuell\bauteile_bestimmt\Draft9.asc

.OP point found by inspection.

Date: Wed May 27 01:38:33 2015
Total elapsed time: 0.033 seconds.

tnom = 27
temp = 27
method = modified trap
totiter = 2082
traniter = 2082
tranpoints = 1042
accept = 1042
rejected = 0
matrix size = 2
fillins = 0
solver = Normal
Matrix Compiler1: 36 bytes object code size  0.2/0.2/[0.2]
Matrix Compiler2: 96 bytes object code size  0.2/0.2/[0.2]


