Circuit: * Z:\home\mainster\CODES_local\LTSpice_projects\galvoscanner\aktuell\bauteile_bestimmt\Draft7.asc

I1: both pins shorted together -- ignoring.
.OP point found by inspection.
.step a=1
.step a=1.25
.step a=1.5
.step a=1.75
.step a=2
.step a=2.25
.step a=2.5
.step a=2.75
.step a=3
.step a=3.25
.step a=3.5
.step a=3.75
.step a=4
.step a=4.25
.step a=4.5
.step a=4.75
.step a=5
.step a=5.25
.step a=5.5
.step a=5.75
.step a=6
.step a=6.25
.step a=6.5
.step a=6.75
.step a=7
.step a=7.25
.step a=7.5
.step a=7.75
.step a=8
.step a=8.25
.step a=8.5
.step a=8.75
.step a=9
.step a=9.25
.step a=9.5
.step a=9.75
.step a=10
.step a=10.25
.step a=10.5
.step a=10.75
.step a=11
.step a=11.25
.step a=11.5
.step a=11.75
.step a=12
.step a=12.25
.step a=12.5
.step a=12.75
.step a=13
.step a=13.25
.step a=13.5
.step a=13.75
.step a=14
.step a=14.25
.step a=14.5
.step a=14.75
.step a=15
.step a=15.25
.step a=15.5
.step a=15.75
.step a=16
.step a=16.25
.step a=16.5
.step a=16.75
.step a=17
.step a=17.25
.step a=17.5
.step a=17.75
.step a=18
.step a=18.25
.step a=18.5
.step a=18.75
.step a=19
.step a=19.25
.step a=19.5
.step a=19.75
.step a=20
.step a=20.25
.step a=20.5
.step a=20.75
.step a=21
.step a=21.25
.step a=21.5
.step a=21.75
.step a=22
.step a=22.25
.step a=22.5
.step a=22.75
.step a=23
.step a=23.25
.step a=23.5
.step a=23.75
.step a=24
.step a=24.25
.step a=24.5
.step a=24.75
.step a=25
.step a=25.25
.step a=25.5
.step a=25.75
.step a=26
.step a=26.25
.step a=26.5
.step a=26.75
.step a=27
.step a=27.25
.step a=27.5
.step a=27.75
.step a=28
.step a=28.25
.step a=28.5
.step a=28.75
.step a=29
.step a=29.25
.step a=29.5
.step a=29.75
.step a=30
.step a=30.25
.step a=30.5
.step a=30.75
.step a=31
.step a=31.25
.step a=31.5
.step a=31.75
.step a=32
.step a=32.25
.step a=32.5
.step a=32.75
.step a=33
.step a=33.25
.step a=33.5
.step a=33.75
.step a=34
.step a=34.25
.step a=34.5
.step a=34.75
.step a=35
.step a=35.25
.step a=35.5
.step a=35.75
.step a=36
.step a=36.25
.step a=36.5
.step a=36.75
.step a=37
.step a=37.25
.step a=37.5
.step a=37.75
.step a=38
.step a=38.25
.step a=38.5
.step a=38.75
.step a=39
.step a=39.25
.step a=39.5
.step a=39.75
.step a=40
.step a=40.25
.step a=40.5
.step a=40.75
.step a=41
.step a=41.25
.step a=41.5
.step a=41.75
.step a=42
.step a=42.25
.step a=42.5
.step a=42.75
.step a=43
.step a=43.25
.step a=43.5
.step a=43.75
.step a=44
.step a=44.25
.step a=44.5
.step a=44.75
.step a=45
.step a=45.25
.step a=45.5
.step a=45.75
.step a=46
.step a=46.25
.step a=46.5
.step a=46.75
.step a=47
.step a=47.25
.step a=47.5
.step a=47.75
.step a=48
.step a=48.25
.step a=48.5
.step a=48.75
.step a=49
.step a=49.25
.step a=49.5
.step a=49.75
.step a=50

Date: Thu Apr 09 15:48:39 2015
Total elapsed time: 4.923 seconds.

tnom = 27
temp = 27
method = modified trap
totiter = 2288
traniter = 2288
tranpoints = 1145
accept = 1133
rejected = 12
matrix size = 3
fillins = 0
solver = Normal
Matrix Compiler1: 86 bytes object code size  0.1/0.2/[0.1]
Matrix Compiler2: 163 bytes object code size  0.2/0.2/[0.2]


