Circuit: * Z:\home\mainster\CODES_local\LTSpice_projects\galvoscanner\aktuell\bauteile_bestimmt\Draft5.asc

Direct Newton iteration for .op point succeeded.

Date: Wed Feb 25 06:07:47 2015
Total elapsed time: 0.056 seconds.

tnom = 27
temp = 27
method = modified trap
totiter = 2449
traniter = 2442
tranpoints = 1173
accept = 1150
rejected = 23
matrix size = 18
fillins = 0
solver = Normal
Matrix Compiler1: 940 bytes object code size  0.5/0.3/[0.2]
Matrix Compiler2: 1.33 KB object code size  0.3/0.4/[0.3]


