Circuit: * Z:\home\mainster\CODES_local\LTSpice_projects\galvoscanner\aktuell\bauteile_bestimmt\endstufe_BJT_EMIT_MJ1101xG_ltc6090_ada4700_compare_nur_ein_hv_FERTIG_hoch2_maerz2015_higain_desk.asc

R17: both pins shorted together -- ignoring.
C6: both pins shorted together -- ignoring.
C7: both pins shorted together -- ignoring.
WARNING: Less than two connections to node N030.  This node is used by R11.
WARNING: Less than two connections to node CALCSUM.  This node is used by B2.
WARNING: Less than two connections to node STIMPWL.  This node is used by V2.
WARNING: Less than two connections to node R_FEED.  This node is used by E1.
Direct Newton iteration for .op point skipped.
Starting Gmin stepping
Gmin = 10
vernier = 0.5
Gmin = 1.86414
vernier = 0.25
vernier = 0.125
vernier = 0.0625
vernier = 0.03125
vernier = 0.015625
Gmin = 2.0809
vernier = 0.0078125
vernier = 0.00390625
vernier = 0.00195313
vernier = 0.000976563
Gmin = 2.07633
vernier = 0.000488281
Gmin = 0
Gmin stepping failed

Starting source stepping with srcstepmethod=0
Source Step = 3.0303%
Source Step = 18.9394%
vernier = 0.0625
Source Step = 20.0758%
Source Step = 21.9697%
Source Step = 23.8636%
Source Step = 25.7576%
Source Step = 27.6515%
vernier = 0.09375
Source Step = 30.3977%
Source Step = 33.2386%
Source Step = 36.0795%
Source Step = 38.9205%
Source Step = 41.7614%
vernier = 0.140625
Source Step = 45.7386%
Source Step = 50%
Source Step = 54.2614%
Source Step = 58.5227%
Source Step = 62.7841%
vernier = 0.210938
Source Step = 68.5369%
Source Step = 74.929%
Source Step = 81.321%
Source Step = 87.7131%
Source Step = 94.1051%
vernier = 0.316406
Source stepping succeeded in finding the operating point.

.step cf=5e-012 lcoil=1e-015
Note: .fourier statements are only valid with a .tran command.
      No Fourier analysis performed.

.step cf=1e-011 lcoil=1e-015
.step cf=1.5e-011 lcoil=1e-015
.step cf=2e-011 lcoil=1e-015
.step cf=5e-012 lcoil=0.00017
.step cf=1e-011 lcoil=0.00017
.step cf=1.5e-011 lcoil=0.00017
.step cf=2e-011 lcoil=0.00017



Date: Sun Mar 22 05:29:37 2015
Total elapsed time: 15.662 seconds.

tnom = 27
temp = 27
method = trap
totiter = 5227
traniter = 0
tranpoints = 0
accept = 0
rejected = 0
matrix size = 226
fillins = 477
solver = Normal
Matrix Compiler1:    1974 opcodes
Matrix Compiler2: 27.7 KB object code size  6.7/6.0/[2.5]


