Circuit: * Z:\home\mainster\CODES_local\LTSpice_projects\galvoscanner\aktuell\bauteile_bestimmt\endstufe_BJT_EMIT_MJ1101xG_ltc6090_compare_inductive_load_HV_highgain_maerz2015.asc

WARNING: Less than two connections to node N064.  This node is used by R16.
WARNING: Less than two connections to node N025.  This node is used by R11.
WARNING: Less than two connections to node CALCSUM.  This node is used by B2.
WARNING: Less than two connections to node STIMPWL.  This node is used by V2.
WARNING: Less than two connections to node N018.  This node is used by E1.
WARNING: Less than two connections to node HV_GAIN.  This node is used by E2.
WARNING: Less than two connections to node NC_05.  This node is used by V:U4:1.
WARNING: Less than two connections to node R_FEED.  This node is used by E3.
WARNING: Less than two connections to node NC_14.  This node is used by R35.
WARNING: Less than two connections to node NC_15.  This node is used by R34.
Direct Newton iteration failed to find .op point.  (Use ".option noopiter" to skip.)
Starting Gmin stepping
Gmin = 10
Gmin = 1.07374
Gmin = 0.115292
Gmin = 0.0123794
Gmin = 0.00132923
Gmin = 0.000142725
Gmin = 1.5325e-005
vernier = 0.5
vernier = 0.25
vernier = 0.125
vernier = 0.0625
Gmin = 1.18885e-005
vernier = 0.03125
vernier = 0.015625
vernier = 0.0078125
vernier = 0.00390625
Gmin = 1.16827e-005
vernier = 0.00195313
vernier = 0.000976563
vernier = 0.000488281
Gmin = 0
Gmin = 0
Gmin stepping failed

Starting source stepping with srcstepmethod=0
Source Step = 3.0303%
Source Step = 18.75%
Source Step = 20.6439%
Source Step = 22.5379%
Source Step = 24.4318%
Source Step = 26.3258%
vernier = 0.09375
Source Step = 28.4091%
Source Step = 31.25%
Source Step = 34.0909%
Source Step = 36.9318%
Source Step = 39.7727%
vernier = 0.140625
Source Step = 42.7557%
Source Step = 47.017%
Source Step = 51.2784%
Source Step = 55.5398%
Source Step = 59.8011%
Source Step = 64.0625%
vernier = 0.210938
Source Step = 70.4545%
Source Step = 76.8466%
Source Step = 83.2386%
Source Step = 89.6307%
Source Step = 96.0227%
vernier = 0.316406
Source stepping succeeded in finding the operating point.



Measurement "slewhi" FAIL'ed

Measurement "slewlo" FAIL'ed

Measurement "trise" FAIL'ed

Measurement "tfall" FAIL'ed


Date: Wed Mar 25 03:35:18 2015
Total elapsed time: 3.024 seconds.

tnom = 27
temp = 27
method = modified trap
totiter = 10074
traniter = 6897
tranpoints = 2993
accept = 2277
rejected = 716
matrix size = 308
fillins = 604
solver = Normal
Thread vector: 110.7/52.7[7] 44.8/18.7[7] 17.3/8.8[7] 2.2/2.6[1]  2592/500
Matrix Compiler1: 42.2 KB object code size  24.8/14.0/[6.3]
Matrix Compiler2: 37.5 KB object code size  9.5/8.9/[4.4]


