Circuit: * Z:\home\mainster\CODES_local\LTSpice_projects\galvoscanner\aktuell\bauteile_bestimmt\endstufe_BJT_EMIT_MJ1101xG_ltc6090_ada4700_compare_nur_ein_hv_FERTIG_hoch2_maerz2015_higain.asc

C6: both pins shorted together -- ignoring.
C7: both pins shorted together -- ignoring.
WARNING: Less than two connections to node N026.  This node is used by R11.
WARNING: Less than two connections to node CALCSUM.  This node is used by B2.
WARNING: Less than two connections to node STIMPWL.  This node is used by V2.
WARNING: Less than two connections to node N018.  This node is used by E1.
WARNING: Less than two connections to node HV_GAIN.  This node is used by E2.
WARNING: Less than two connections to node NC_05.  This node is used by V:U4:1.
WARNING: Less than two connections to node R_FEED.  This node is used by E3.
Direct Newton iteration for .op point skipped.
Starting Gmin stepping
Gmin = 10
Gmin = 1.07374
Gmin = 0.115292
Gmin = 0.0123794
Gmin = 0.00132923
Gmin = 0.000142725
Gmin = 1.5325e-005
Gmin = 1.6455e-006
Gmin = 1.76685e-007
Gmin = 1.89714e-008
vernier = 0.5
vernier = 0.25
vernier = 0.125
vernier = 0.0625
vernier = 0.03125
vernier = 0.015625
vernier = 0.0078125
vernier = 0.00390625
vernier = 0.00195313
vernier = 0.000976563
Gmin = 2.37142e-008
vernier = 0.000488281
Gmin = 0
Gmin stepping failed

Starting source stepping with srcstepmethod=0
Source Step = 3.0303%
Source Step = 18.9394%
vernier = 0.0625
Source Step = 20.0758%
Source Step = 21.9697%
Source Step = 23.8636%
Source Step = 25.7576%
Source Step = 27.6515%
vernier = 0.09375
Source Step = 30.3977%
Source Step = 33.2386%
Source Step = 36.0795%
Source Step = 38.9205%
Source Step = 41.7614%
vernier = 0.140625
Source Step = 45.7386%
Source Step = 50%
Source Step = 54.2614%
Source Step = 58.5227%
Source Step = 62.7841%
vernier = 0.210938
Source Step = 68.5369%
Source Step = 74.929%
Source Step = 81.321%
Source Step = 87.7131%
Source Step = 94.1051%
vernier = 0.316406
Source stepping succeeded in finding the operating point.

.step lcoil=1e-015
Note: .fourier statements are only valid with a .tran command.
      No Fourier analysis performed.

.step lcoil=0.00017



Date: Sun Mar 22 05:31:10 2015
Total elapsed time: 2.325 seconds.

tnom = 27
temp = 27
method = trap
totiter = 3059
traniter = 0
tranpoints = 0
accept = 0
rejected = 0
matrix size = 197
fillins = 374
solver = Normal
Matrix Compiler1:    1623 opcodes
Matrix Compiler2: 23.5 KB object code size  4.5/5.2/[3.2]


