Circuit: * Z:\home\mainster\CODES_local\LTSpice_projects\galvoscanner\aktuell\bauteile_bestimmt\REF200_Current_sink_source.asc

WARNING: Less than two connections to node NC_01.  This node is used by V:U5:1.
WARNING: Less than two connections to node N007.  This node is used by Q8.
WARNING: Less than two connections to node N020.  This node is used by R23.
WARNING: Less than two connections to node N035.  This node is used by Q2.
Direct Newton iteration for .op point succeeded.
.step temp=1°C
.step temp=20°C
.step temp=100°C

Date: Fri Mar 13 10:51:48 2015
Total elapsed time: 0.528 seconds.

tnom = 27
temp = 100
method = modified trap
totiter = 2589
traniter = 2083
tranpoints = 1042
accept = 1042
rejected = 0
matrix size = 140
fillins = 45
solver = Normal
Matrix Compiler1: 10.9 KB object code size  5.1/1.8/[1.4]
Matrix Compiler2: 12.1 KB object code size  2.1/2.5/[1.8]


