Circuit: * Z:\home\mainster\CODES_local\LTSpice_projects\galvoscanner\aktuell\bauteile_bestimmt\stromquelle_senke.asc

Warning: Multiple definitions of model "sub704" Type: BJT
Warning: Multiple definitions of model "sub605" Type: BJT
Warning: Multiple definitions of model "n3306d" Type: Diode
Warning: Multiple definitions of model "diode1" Type: Diode
Direct Newton iteration for .op point succeeded.

Date: Mon Jun 08 18:32:50 2015
Total elapsed time: 0.121 seconds.

tnom = 27
temp = 27
method = modified trap
totiter = 2095
traniter = 2082
tranpoints = 1042
accept = 1042
rejected = 0
matrix size = 40
fillins = 48
solver = Normal
Matrix Compiler1: 4.33 KB object code size  2.5/1.7/[0.7]
Matrix Compiler2: 3.94 KB object code size  1.0/1.5/[0.6]


