Circuit: * Z:\home\mainster\CODES_local\LTSpice_projects\galvoscanner\aktuell\bauteile_bestimmt\sysCompl_endstufe_FET_v22_transducer_v20_ENDSTUFE_GATEWIDERTS.asc

Warning: Multiple definitions of model "ca3046" Type: BJT
C4: both pins shorted together -- ignoring.
WARNING: Less than two connections to node AREF_2.  This node is used by V:U6:1.
WARNING: Less than two connections to node AREF.  This node is used by V:U7:1.
WARNING: Less than two connections to node VKP.  This node is used by V:U32:1.
WARNING: Less than two connections to node NC_02.  This node is used by R7.
.step ndrv=139
Direct Newton iteration failed to find .op point.  (Use ".option noopiter" to skip.)
Starting Gmin stepping
Gmin = 10
Gmin = 1.07374
Gmin = 0.115292
Gmin = 0.0123794
Gmin = 0.00132923
Gmin = 0.000142725
Gmin = 1.5325e-005
Gmin = 1.6455e-006
Gmin = 1.76685e-007
Gmin = 1.89714e-008
Gmin = 2.03704e-009
Gmin = 2.18725e-010
Gmin = 2.34854e-011
Gmin = 2.52173e-012
Gmin = 2.70769e-013
Gmin = 0
Gmin stepping succeeded in finding the operating point.

.step ndrv=624
.step ndrv=3904

Date: Sat Aug 08 18:48:37 2015
Total elapsed time: 1.000 seconds.

tnom = 27
temp = 27
method = trap
totiter = 1817
traniter = 0
tranpoints = 0
accept = 0
rejected = 0
matrix size = 129
fillins = 134
solver = Normal
Thread vector: 49.4/22.2[6] 0.0/0.0[0] 7.1/4.6[6] 0.8/1.5[1]  2592/500
Matrix Compiler1:     654 opcodes  7.6/3.9/[1.5]
Matrix Compiler2: 13.4 KB object code size  3.4/3.5/[1.3]


