Circuit: * Z:\home\mainster\CODES_local\LTSpice_projects\galvoscanner\aktuell\bauteile_bestimmt\sysCompl_endstufe_FET_v21_transducer_v20_netlist_neu_aufgebaut.asc

C4: both pins shorted together -- ignoring.
u15:d18: both pins shorted together -- ignoring.
WARNING: Less than two connections to node G2.  This node is used by V2.
WARNING: Less than two connections to node CRF_SAR.  This node is used by V:U16:1.
WARNING: Less than two connections to node CRB.  This node is used by V:U17:1.
WARNING: Less than two connections to node CRG.  This node is used by V:U18:1.
WARNING: Less than two connections to node POSDEMOD.  This node is used by R40.
WARNING: Less than two connections to node G1.  This node is used by V4.
WARNING: Less than two connections to node CRF_REF.  This node is used by V:U27:1.
WARNING: Less than two connections to node VKP.  This node is used by V:U32:1.
Direct Newton iteration failed to find .op point.  (Use ".option noopiter" to skip.)
Starting Gmin stepping
Gmin = 10
Gmin = 1.07374
Gmin = 0.115292
Gmin = 0.0123794
Gmin = 0.00132923
Gmin = 0.000142725
Gmin = 1.5325e-005
vernier = 0.5
Gmin = 2.85678e-006
vernier = 0.25
vernier = 0.333333
Gmin = 1.65938e-006
vernier = 0.444444
vernier = 0.592592
Gmin = 6.04111e-007
vernier = 0.790123
Gmin = 1.2294e-007
vernier = 1
vernier = 0.5
vernier = 0.25
vernier = 0.125
Gmin = 7.48868e-008
vernier = 0.166667
vernier = 0.222222
Gmin = 4.94701e-008
vernier = 0.296296
Gmin = 2.59545e-008
vernier = 0.395061
vernier = 0.526748
Gmin = 8.99245e-009
vernier = 0.702331
vernier = 0.351165
vernier = 0.175583
vernier = 0.0877914
vernier = 0.0438957
Gmin = 4.32181e-009
vernier = 0.0219478
vernier = 0.0109739
vernier = 0.00548696
vernier = 0.00731595
Gmin = 4.27663e-009
vernier = 0.00975459
Gmin = 4.18389e-009
vernier = 0.0130061
vernier = 0.0173415
Gmin = 4.0328e-009
vernier = 0.023122
vernier = 0.0308293
Gmin = 3.8033e-009
vernier = 0.0411057
Gmin = 3.46882e-009
vernier = 0.0548076
vernier = 0.0730768
Gmin = 2.97351e-009
vernier = 0.0974357
vernier = 0.129914
Gmin = 2.32847e-009
vernier = 0.173219
Gmin = 1.58883e-009
vernier = 0.230959
vernier = 0.115479
vernier = 0.0577396
vernier = 0.0288698
vernier = 0.0144349
vernier = 0.00721745
vernier = 0.00360873
Gmin = 1.41883e-009
vernier = 0.00481163
Gmin = 1.40356e-009
vernier = 0.00641551
vernier = 0.00855401
Gmin = 1.3783e-009
vernier = 0.0114053
vernier = 0.0152071
Gmin = 1.33898e-009
vernier = 0.0202762
Gmin = 1.2794e-009
vernier = 0.0270349
vernier = 0.0360465
Gmin = 1.18541e-009
vernier = 0.048062
vernier = 0.0640826
Gmin = 1.0499e-009
vernier = 0.0854435
Gmin = 8.67886e-010
vernier = 0.113925
vernier = 0.151899
vernier = 0.0759497
vernier = 0.0379749
vernier = 0.0189874
Gmin = 7.33305e-010
vernier = 0.00949371
vernier = 0.00474686
vernier = 0.00237343
vernier = 0.00118671
vernier = 0.000593357
Gmin = 7.32761e-010
vernier = 0.000791143
vernier = 0.00105486
Gmin = 7.3112e-010
vernier = 0.00140648
vernier = 0.0018753
Gmin = 7.28512e-010
vernier = 0.0025004
Gmin = 7.24426e-010
vernier = 0.00333386
vernier = 0.00444515
Gmin = 7.17619e-010
vernier = 0.00592687
vernier = 0.00790249
Gmin = 7.06898e-010
vernier = 0.0105366
Gmin = 6.90356e-010
vernier = 0.0140489
vernier = 0.0187318
Gmin = 6.63469e-010
vernier = 0.0249757
vernier = 0.033301
Gmin = 6.2279e-010
vernier = 0.0444013
Gmin = 5.63863e-010
vernier = 0.0592017
vernier = 0.0789356
Gmin = 4.77466e-010
vernier = 0.105247
vernier = 0.0526237
vernier = 0.0263119
vernier = 0.0131559
vernier = 0.00657796
vernier = 0.00328898
Gmin = 4.58411e-010
vernier = 0.00438531
vernier = 0.00584708
Gmin = 4.53622e-010
vernier = 0.0077961
Gmin = 4.45959e-010
vernier = 0.0103948
vernier = 0.0138597
Gmin = 4.3369e-010
vernier = 0.0184796
vernier = 0.0246395
Gmin = 4.14949e-010
vernier = 0.0328527
Gmin = 3.86277e-010
vernier = 0.0438035
vernier = 0.0584047
Gmin = 3.43621e-010
vernier = 0.0778729
vernier = 0.0389365
vernier = 0.0194682
vernier = 0.00973411
vernier = 0.00486706
Gmin = 3.28199e-010
vernier = 0.00648941
vernier = 0.00865254
Gmin = 3.2314e-010
vernier = 0.0115367
Gmin = 3.15097e-010
vernier = 0.0153823
vernier = 0.0205097
Gmin = 3.02363e-010
vernier = 0.0273463
vernier = 0.0364617
Gmin = 2.83251e-010
vernier = 0.0486156
Gmin = 2.5482e-010
vernier = 0.0648208
vernier = 0.0324104
vernier = 0.0162052
vernier = 0.00810259
vernier = 0.0040513
Gmin = 2.50743e-010
vernier = 0.00540173
vernier = 0.0072023
Gmin = 2.47132e-010
vernier = 0.00960307
vernier = 0.0128041
Gmin = 2.41517e-010
vernier = 0.0170721
Gmin = 2.32681e-010
vernier = 0.0227628
vernier = 0.0303504
Gmin = 2.18915e-010
vernier = 0.0404672
vernier = 0.0539563
Gmin = 1.98783e-010
vernier = 0.0269781
vernier = 0.0134891
vernier = 0.00674453
vernier = 0.00337227
vernier = 0.00449635
Gmin = 2.00392e-010
vernier = 0.00599514
Gmin = 1.97783e-010
vernier = 0.00799351
vernier = 0.010658
Gmin = 1.93584e-010
vernier = 0.0142107
vernier = 0.0189476
Gmin = 1.87115e-010
vernier = 0.0252634
Gmin = 1.77082e-010
vernier = 0.0336846
vernier = 0.0449127
Gmin = 1.61824e-010
vernier = 0.0598836
vernier = 0.0299418
vernier = 0.0149709
vernier = 0.00748545
vernier = 0.00374273
vernier = 0.00187136
Gmin = 1.5642e-010
vernier = 0.00249515
Gmin = 1.55544e-010
vernier = 0.00332687
vernier = 0.00443582
Gmin = 1.54086e-010
vernier = 0.00591443
vernier = 0.0078859
Gmin = 1.51788e-010
vernier = 0.0105145
Gmin = 1.48244e-010
vernier = 0.0140194
vernier = 0.0186925
Gmin = 1.42482e-010
vernier = 0.0249233
vernier = 0.0332311
Gmin = 1.33764e-010
vernier = 0.0443081
vernier = 0.022154
vernier = 0.011077
vernier = 0.00553851
vernier = 0.00276926
Gmin = 1.2932e-010
vernier = 0.00369234
Gmin = 1.28251e-010
vernier = 0.00492312
vernier = 0.00656416
Gmin = 1.26475e-010
vernier = 0.00875221
vernier = 0.0116696
Gmin = 1.23696e-010
vernier = 0.0155595
Gmin = 1.19448e-010
vernier = 0.020746
vernier = 0.0276613
Gmin = 1.12649e-010
vernier = 0.0368817
vernier = 0.0491756
vernier = 0.0245878
Gmin = 1.05154e-010
vernier = 0.0122939
vernier = 0.00614694
vernier = 0.00307347
vernier = 0.00153674
vernier = 0.000768368
vernier = 0.000576276
vernier = 0.000432207
Gmin = 0
Gmin stepping failed

Starting source stepping with srcstepmethod=0
Source Step = 3.0303%
Source Step = 16.0038%
Source Step = 16.4773%
Source Step = 16.9508%
Source Step = 17.4242%
Source Step = 17.8977%
vernier = 0.0234375
Source Step = 18.3949%
Source Step = 19.1051%
Source Step = 19.8153%
Source Step = 20.5256%
Source Step = 21.2358%
Source Step = 21.946%
vernier = 0.0351563
Source Step = 22.1857%
Source Step = 22.4521%
Source Step = 22.7184%
Source Step = 22.9847%
Source Step = 23.2511%
vernier = 0.0131836
Source Step = 23.6239%
Source Step = 24.0234%
Source Step = 24.4229%
Source Step = 24.8224%
Source Step = 25.2219%
vernier = 0.0197754
Source Step = 25.4317%
Source Step = 25.5815%
Source Step = 25.7313%
Source Step = 25.8811%
Source Step = 26.0309%
vernier = 0.00741577
Source Step = 26.2182%
Source Step = 26.4429%
Source Step = 26.6676%
Source Step = 26.8924%
Source Step = 27.1171%
vernier = 0.0111237
Source Step = 27.3868%
Source Step = 27.7238%
Source Step = 28.0609%
Source Step = 28.2379%
Source Step = 28.3222%
Source Step = 28.4064%
Source Step = 28.4907%
Source Step = 28.575%
vernier = 0.00417137
Source Step = 28.6761%
Source Step = 28.8025%
Source Step = 28.9289%
Source Step = 29.0553%
Source Step = 29.1817%
vernier = 0.00625706
Source Step = 29.3271%
Source Step = 29.5167%
Source Step = 29.7063%
Source Step = 29.8959%
Source Step = 30.0855%
vernier = 0.00938559
Source Step = 30.2443%
Source Step = 30.3154%
Source Step = 30.3865%
Source Step = 30.4576%
Source Step = 30.5287%
Source Step = 30.5998%
vernier = 0.00351959
Source Step = 30.7065%
Source Step = 30.8131%
Source Step = 30.9198%
Source Step = 31.0264%
Source Step = 31.1331%
vernier = 0.00527939
Source Step = 31.2877%
Source Step = 31.4477%
Source Step = 31.6077%
Source Step = 31.7677%
Source Step = 31.9277%
vernier = 0.00791909
Source Step = 32.0017%
Source Step = 32.0616%
Source Step = 32.1216%
Source Step = 32.1816%
Source Step = 32.2416%
vernier = 0.00296966
Source Step = 32.3196%
Source Step = 32.4096%
Source Step = 32.4996%
Source Step = 32.5896%
Source Step = 32.6796%
vernier = 0.00445449
Source Step = 32.7921%
Source Step = 32.927%
Source Step = 33.062%
Source Step = 33.197%
Source Step = 33.332%
vernier = 0.00668173
Source Step = 33.494%
Source Step = 33.6965%
Source Step = 33.8989%
Source Step = 34.1014%
Source Step = 34.3039%
vernier = 0.0100226
Source Step = 34.5367%
Source Step = 34.8405%
Source Step = 35.1442%
Source Step = 35.4479%
Source Step = 35.7516%
vernier = 0.0150339
Source Step = 36.0857%
Source Step = 36.5413%
Source Step = 36.9968%
Source Step = 37.4524%
Source Step = 37.908%
vernier = 0.0225508
Source Step = 38.3863%
Source Step = 39.0697%
Source Step = 39.753%
Source Step = 40.4364%
Source Step = 41.1198%
Source Step = 41.8031%
vernier = 0.0338263
Source Step = 42.8282%
Source Step = 43.8532%
Source Step = 44.8782%
Source Step = 45.9033%
Source Step = 46.9283%
vernier = 0.0507394
Source Step = 48.4146%
Source Step = 49.9522%
Source Step = 51.4897%
Source Step = 53.0273%
Source Step = 54.5648%
vernier = 0.0761091
Source Step = 56.7174%
Source Step = 59.0238%
Source Step = 61.3301%
Source Step = 63.6364%
Source Step = 65.9428%
vernier = 0.114164
Source Step = 69.0563%
Source Step = 72.5158%
Source Step = 75.9753%
Source Step = 79.4348%
Source Step = 82.8943%
vernier = 0.171245
Source Step = 87.3917%
Source Step = 92.5809%
Source Step = 97.7702%
Source stepping succeeded in finding the operating point.


Date: Fri Aug 07 14:22:26 2015
Total elapsed time: 8.988 seconds.

tnom = 27
temp = 27
method = trap
totiter = 27272
traniter = 0
tranpoints = 0
accept = 0
rejected = 0
matrix size = 201
fillins = 339
solver = Normal
Matrix Compiler1:    1455 opcodes
Matrix Compiler2: 24.5 KB object code size  5.0/6.8/[3.0]


