Circuit: * Z:\home\mainster\CODES_local\LTSpice_projects\EAS_beispiele\Simulationsbeispiele_WS14\EAS\2q-mult-lin-simple-2.asc

Direct Newton iteration for .op point succeeded.
.step temp=0°C
.step temp=50°C
.step temp=100°C

Date: Thu Feb 12 16:18:41 2015
Total elapsed time: 0.211 seconds.

tnom = 27
temp = 100
method = modified trap
totiter = 2105
traniter = 2082
tranpoints = 1042
accept = 1042
rejected = 0
matrix size = 25
fillins = 4
solver = Normal
Matrix Compiler1: 1,47 KB object code size  0.8/0.5/[0.4]
Matrix Compiler2: 2,07 KB object code size  0.6/0.6/[0.5]


