Circuit: * Z:\home\koblitz\Simulationsbeispiele_WS14\EAS\bg_1.asc

.step r3=1e+012
.step r3=1e+006
.step r3=100000
.step r3=50000
.step r3=10000

Date: Mon Oct 13 12:21:49 2014
Total elapsed time: 0.163 seconds.

tnom = 27
temp = 27
method = trap
totiter = 318
traniter = 0
tranpoints = 0
accept = 0
rejected = 0
matrix size = 15
fillins = 2
solver = Normal
Matrix Compiler1: 890 Bytes object code size  2.0/1.8/[1.6]
Matrix Compiler2: off  [1.7]/2.0/2.9


