Stray ".ends" card: .ends
Stray ".ends" card: .ends
Stray ".ends" card: .ends
Circuit: * Z:\home\koblitz\Simulationsbeispiele_WS14\EAS\bg_317.asc

Ignoring empty pin current: Ix(u2:inp)
Ignoring empty pin current: Ix(u2:inm)

Date: Thu Oct 09 14:24:10 2014
Total elapsed time: 0.097 seconds.

tnom = 27
temp = 101
method = trap
totiter = 212
traniter = 0
tranpoints = 0
accept = 0
rejected = 0
matrix size = 21
fillins = 12
solver = Normal
Matrix Compiler1: 1,36 KB object code size  2.3/2.1/[1.6]
Matrix Compiler2: 1,79 KB object code size  1.7/2.1/[1.4]


