Stray ".ends" card: .ends
Stray ".ends" card: .ends
Stray ".ends" card: .ends
Circuit: * Z:\home\koblitz\Simulationsbeispiele_WS14\EAS\bg_diode.asc


Date: Mon Oct 13 12:20:03 2014
Total elapsed time: 0.068 seconds.

tnom = 27
temp = 27
method = trap
totiter = 313
traniter = 0
tranpoints = 0
accept = 0
rejected = 0
matrix size = 5
fillins = 0
solver = Normal
Matrix Compiler1: 114 Bytes object code size  1.8/1.6/[1.6]
Matrix Compiler2: 327 Bytes object code size  1.8/1.8/[1.8]


