Circuit: * Z:\home\mainster\CODES_local\LTSpice_projects\EAS_beispiele\Simulationsbeispiele_WS14\EAS\lin-4q-mischer.asc

WARNING: Less than two connections to node OUT.  This node is used by E1.
WARNING: Less than two connections to node N002.  This node is used by V2.
Direct Newton iteration for .op point succeeded.

Date: Thu Feb 19 10:08:55 2015
Total elapsed time: 0.734 seconds.

tnom = 27
temp = 27
method = modified trap
totiter = 80511
traniter = 80503
tranpoints = 40010
accept = 24014
rejected = 15996
matrix size = 18
fillins = 4
solver = Normal
Matrix Compiler1: 1,00 KB object code size  0.7/0.6/[0.4]
Matrix Compiler2: 1,52 KB object code size  0.7/0.6/[0.5]


