Stray ".ends" card: .ends
Circuit: * Z:\home\mainster\CODES_local\LTSpice_projects\EAS_beispiele\Simulationsbeispiele_WS14\EAS\lin-2q-mult.asc

.step i0=0
.step i0=0.0001
.step i0=0.0002
.step i0=0.0003
.step i0=0.0004
.step i0=0.0005
.step i0=0.0006
.step i0=0.0007
.step i0=0.0008
.step i0=0.0009
.step i0=0.001

Date: Thu Jul 09 00:48:42 2015
Total elapsed time: 0.243 seconds.

tnom = 27
temp = 27
method = trap
totiter = 369
traniter = 0
tranpoints = 0
accept = 0
rejected = 0
matrix size = 13
fillins = 4
solver = Normal
Matrix Compiler1: 896 bytes object code size  0.8/0.5/[0.4]
Matrix Compiler2: 1.12 KB object code size  0.5/0.6/[0.4]


