Stray ".ends" card: .ends
Circuit: * Z:\home\mainster\CODES_local\LTSpice_projects\EAS_beispiele\Simulationsbeispiele_WS14\EAS\lin-2q-mult-opout.asc

WARNING: Less than two connections to node N003.  This node is used by V2.
Direct Newton iteration for .op point succeeded.

Date: Thu Jul 09 00:32:45 2015
Total elapsed time: 1.953 seconds.

tnom = 27
temp = 27
method = modified trap
totiter = 171879
traniter = 171872
tranpoints = 80011
accept = 48038
rejected = 31973
matrix size = 23
fillins = 12
solver = Normal
Matrix Compiler1: 1.67 KB object code size  1.1/0.7/[0.5]
Matrix Compiler2: 1.97 KB object code size  0.6/0.8/[0.5]


