Stray ".ends" card: .ends
Circuit: * Z:\home\mainster\CODES_local\LTSpice_projects\EAS_beispiele\Simulationsbeispiele_WS14\EAS\lin-2q-mult-opout-2.asc


Date: Thu Jul 09 00:46:59 2015
Total elapsed time: 0.036 seconds.

tnom = 27
temp = 27
method = trap
totiter = 371
traniter = 0
tranpoints = 0
accept = 0
rejected = 0
matrix size = 23
fillins = 12
solver = Normal
Matrix Compiler1: 2.10 KB object code size  1.1/0.6/[0.3]
Matrix Compiler2: 2.19 KB object code size  0.5/0.6/[0.3]


