Stray ".ends" card: .ends
Circuit: * Z:\home\mainster\CODES_local\LTSpice_projects\EAS_beispiele\Simulationsbeispiele_WS14\EAS\mult_steilheit.asc

.step n=1
.step n=2
.step n=3
.step n=4
.step n=5
.step n=6
.step n=7
.step n=8
.step n=9
.step n=10

Date: Thu Jul 09 00:29:40 2015
Total elapsed time: 0.334 seconds.

tnom = 27
temp = 27
method = trap
totiter = 1212
traniter = 0
tranpoints = 0
accept = 0
rejected = 0
matrix size = 8
fillins = 2
solver = Normal
Matrix Compiler1:      27 opcodes  0.3/0.2/[0.2]
Matrix Compiler2: 690 bytes object code size  0.3/0.3/[0.2]


