Circuit: * Z:\home\mainster\CODES_local\LTSpice_projects\EAS_beispiele\Simulationsbeispiele_WS14\EAS\op_1_low-power.asc

Direct Newton iteration for .op point succeeded.
.step k=1
.step k=2
.step k=10
.step k=100
.step k=1000

Date: Thu Feb 12 18:35:55 2015
Total elapsed time: 0.133 seconds.

tnom = 27
temp = 27
method = trap
totiter = 391
traniter = 0
tranpoints = 0
accept = 0
rejected = 0
matrix size = 16
fillins = 20
solver = Normal
Matrix Compiler1:     160 opcodes
Matrix Compiler2:     139 opcodes  0.5/[0.4]/1.0


