Stray ".ends" card: .ends
Stray ".ends" card: .ends
Stray ".ends" card: .ends
Circuit: * Z:\home\koblitz\Simulationsbeispiele_WS14\EAS\op_4-lim.asc

Direct Newton iteration for .op point succeeded.

Date: Wed Oct 22 10:38:26 2014
Total elapsed time: 0.376 seconds.

tnom = 27
temp = 27
method = modified trap
totiter = 4614
traniter = 4581
tranpoints = 1907
accept = 1687
rejected = 220
matrix size = 35
fillins = 32
solver = Normal
Thread vector: 49.4/26.1[2] 17.9/8.9[2] 10.5/7.0[2] 2.7/143.8[1]  2592/500
Matrix Compiler1: 4,94 KB object code size  4.1/3.6/[3.2]
Matrix Compiler2: off  [2.5]/5.3/13.8


