Circuit: * Z:\home\koblitz\Simulationsbeispiele_WS14\EAS\op_mit macromodell.asc

Direct Newton iteration for .op point succeeded.
Ignoring empty pin current: Ix(u1:inp)
Ignoring empty pin current: Ix(u1:inm)
Ignoring empty pin current: Ix(u1:inp)
Ignoring empty pin current: Ix(u1:inm)

Date: Wed Oct 29 12:13:37 2014
Total elapsed time: 0.048 seconds.

tnom = 27
temp = 27
method = trap
totiter = 4
traniter = 0
tranpoints = 0
accept = 0
rejected = 0
matrix size = 15
fillins = 2
solver = Normal
Matrix Compiler1:      30 opcodes
Matrix Compiler2: 1003 Bytes object code size

