Circuit: * Z:\home\mainster\CODES_local\LTSpice_projects\EAS_beispiele\Simulationsbeispiele_WS14\EAS\SR_1-lastsprung.asc

WARNING: Less than two connections to node N001.  This node is used by V2.
Direct Newton iteration for .op point succeeded.
.step ca=0.0001
.step ca=0.00047

Date: Thu Jul 09 13:36:06 2015
Total elapsed time: 9.174 seconds.

tnom = 27
temp = 27
method = modified trap
totiter = 878456
traniter = 878453
tranpoints = 419908
accept = 273801
rejected = 146107
matrix size = 13
fillins = 0
solver = Normal
Matrix Compiler1: 334 bytes object code size  0.3/0.3/[0.2]
Matrix Compiler2: 755 bytes object code size  0.3/0.4/[0.2]


