Circuit: * Z:\home\mainster\CODES_local\LTSpice_projects\EAS_beispiele\Simulationsbeispiele_WS14\EAS\SR_1-lueck.asc

WARNING: Less than two connections to node INTIL.  This node is used by B1.
WARNING: Less than two connections to node RESINT.  This node is used by B2.
WARNING: Less than two connections to node DDT.  This node is used by B3.
Direct Newton iteration for .op point succeeded.

Date: Thu Jul 09 13:35:16 2015
Total elapsed time: 0.125 seconds.

tnom = 27
temp = 27
method = modified trap
totiter = 28677
traniter = 28674
tranpoints = 9480
accept = 6090
rejected = 3390
matrix size = 20
fillins = 0
solver = Normal
Matrix Compiler1: 620 bytes object code size  0.3/0.3/[0.2]
Matrix Compiler2: 1.11 KB object code size  0.3/0.4/[0.2]


