Circuit: * Z:\home\mainster\CODES_local\LTSpice_projects\EAS_beispiele\Simulationsbeispiele_WS14\EAS\SR_geregelt.asc

WARNING: Less than two connections to node N003.  This node is used by V2.
Direct Newton iteration failed to find .op point.  (Use ".option noopiter" to skip.)
Starting Gmin stepping
Gmin = 10
Gmin = 1.07374
Gmin = 0.115292
Gmin = 0.0123794
Gmin = 0.00132923
vernier = 0.5
Gmin = 0.000223007
vernier = 0.25
vernier = 0.125
Gmin = 0.000164961
vernier = 0.166667
vernier = 0.222222
Gmin = 0.000106464
vernier = 0.296296
vernier = 0.395061
Gmin = 5.36598e-005
vernier = 0.526748
Gmin = 1.80506e-005
vernier = 0.702331
vernier = 0.936441
Gmin = 3.21503e-006
vernier = 1
Gmin = 3.58718e-007
Gmin = 3.8517e-008
Gmin = 4.13573e-009
Gmin = 4.44071e-010
Gmin = 4.76818e-011
Gmin = 5.11979e-012
Gmin = 5.49733e-013
Gmin = 0
Gmin stepping succeeded in finding the operating point.

Ignoring empty pin current: Ix(u1:1)
Ignoring empty pin current: Ix(u1:2)
Ignoring empty pin current: Ix(u1:1)
Ignoring empty pin current: Ix(u1:2)
Heightened Def Con from 0.00884717 to 0.00884717

Date: Thu Jul 09 13:31:20 2015
Total elapsed time: 8.521 seconds.

tnom = 27
temp = 27
method = modified trap
totiter = 896409
traniter = 895481
tranpoints = 382500
accept = 249641
rejected = 132860
matrix size = 34
fillins = 19
solver = Normal
Matrix Compiler1: 1.68 KB object code size  0.7/0.5/[0.3]
Matrix Compiler2: 2.27 KB object code size  0.8/0.9/[0.5]


