Circuit: * Z:\home\mainster\CODES_local\LTSpice_projects\EAS_beispiele\Simulationsbeispiele_WS14\EAS\SR_nyquist.asc

.step kr=0.5
.step kr=1
.step kr=2
.step kr=5
.step kr=10

Date: Thu Jul 09 19:58:21 2015
Total elapsed time: 0.137 seconds.

tnom = 27
temp = 27
method = trap
totiter = 0
traniter = 0
tranpoints = 0
accept = 0
rejected = 0
matrix size = 38
fillins = 57
solver = Normal

