Circuit: * C:\Program Files (x86)\LTC_ALL\LTspiceIV_4.18_multiLibs\examples\Educational\UHFpreamp.asc

Direct Newton iteration for .op point succeeded.

Date: Sat Dec 06 23:20:26 2014
Total elapsed time: 0.052 seconds.

tnom = 27
temp = 27
method = trap
totiter = 8
traniter = 0
tranpoints = 0
accept = 0
rejected = 0
matrix size = 34
fillins = 16
solver = Normal
Matrix Compiler1:     154 opcodes
Matrix Compiler2: 2.80 KB object code size

