Circuit: * C:\Program Files (x86)\LTC_ALL\LTspiceIV_4.18_multiLibs\examples\Educational\varactor2.asc

Direct Newton iteration for .op point succeeded.

Date: Sat Dec 06 23:19:44 2014
Total elapsed time: 0.022 seconds.

tnom = 27
temp = 27
method = trap
totiter = 18
traniter = 0
tranpoints = 0
accept = 0
rejected = 0
matrix size = 54
fillins = 15
solver = Normal
Matrix Compiler1:     170 opcodes
Matrix Compiler2: 4.02 KB object code size

