Circuit: * C:\Program Files (x86)\LTC_ALL\LTspiceIV_4.18_multiLibs\examples\Educational\varactor.asc

Direct Newton iteration for .op point succeeded.
.step vtune=0
.step vtune=5
.step vtune=20

Date: Sat Dec 06 23:20:02 2014
Total elapsed time: 0.063 seconds.

tnom = 27
temp = 27
method = trap
totiter = 13
traniter = 0
tranpoints = 0
accept = 0
rejected = 0
matrix size = 18
fillins = 1
solver = Normal
Matrix Compiler1:      48 opcodes
Matrix Compiler2: 1.27 KB object code size

