Circuit: * C:\Program Files (x86)\LTC_ALL\LTspiceIV_4.18_multiLibs\examples\LtSpicePlus\Digital\A_Devices\Counters\Sequencer6.asc

Per .tran options, skipping operating point for transient analysis.

Date: Mon Feb 09 11:30:20 2015
Total elapsed time: 0.029 seconds.

tnom = 27
temp = 27
method = modified trap
totiter = 4929
traniter = 4929
tranpoints = 1637
accept = 1317
rejected = 320
matrix size = 8
fillins = 0
solver = Normal
Matrix Compiler1: 120 bytes object code size  0.1/0.2/[0.1]
Matrix Compiler2: 330 bytes object code size  0.2/0.2/[0.1]


