Circuit: * Z:\home\mainster\CODES_local\LTSpice_projects\visa_commander\freq_response_recorder.asc

Direct Newton iteration for .op point succeeded.

Date: Fri Sep 18 08:37:15 2015
Total elapsed time: 0.051 seconds.

tnom = 27
temp = 27
method = trap
totiter = 21
traniter = 0
tranpoints = 0
accept = 0
rejected = 0
matrix size = 40
fillins = 9
solver = Normal
Matrix Compiler1:     107 opcodes
Matrix Compiler2: 3.13 KB object code size

