Stray ".ends" card: .ends
Circuit: * Z:\home\mainster\CODES_local\LTSpice_projects\ua741_diskret\ua741_diskret_moreRs.asc

Direct Newton iteration for .op point succeeded.
Changing Tseed to 2.92969e-010
Changing Tseed to 2.92969e-012
Changing Tseed to 2.92969e-009
Changing Tseed to 2.92969e-013
Changing Tseed to 2.92969e-008
Changing Tseed to 2.92969e-014
Changing Tseed to 2.92969e-007
Changing Tseed to 2.92969e-015

Date: Sat Jun 20 15:38:01 2015
Total elapsed time: 0.128 seconds.

tnom = 27
temp = 27
method = modified trap
totiter = 2307
traniter = 2268
tranpoints = 1066
accept = 1058
rejected = 0
matrix size = 32
fillins = 23
solver = Normal
Thread vector: 19.1/13.1[2] 5.5/3.5[2] 5.3/3.2[2] 0.6/1.1[1]  2592/500
Matrix Compiler1: 4.07 KB object code size  2.7/1.5/[0.6]
Matrix Compiler2:     271 opcodes  1.0/[0.8]/1.1


