Circuit: * Z:\home\mainster\CODES_local\LTSpice_projects\ua741_diskret\ua741_diskret.asc

Warning: Multiple definitions of model "sub704" Type: BJT
Warning: Multiple definitions of model "sub605" Type: BJT
Warning: Multiple definitions of model "n3306d" Type: Diode
Warning: Multiple definitions of model "diode1" Type: Diode
Rl: both pins shorted together -- ignoring.
WARNING: Less than two connections to node DV.  This node is used by B1.
Direct Newton iteration for .op point succeeded.

Date: Fri Jun 19 03:06:07 2015
Total elapsed time: 0.111 seconds.

tnom = 27
temp = 27
method = trap
totiter = 19
traniter = 0
tranpoints = 0
accept = 0
rejected = 0
matrix size = 48
fillins = 37
solver = Normal
Matrix Compiler1:     309 opcodes
Matrix Compiler2: 5.10 KB object code size

