Circuit: * Z:\home\mainster\CODES_local\LTSpice_projects\bandgap_zelle\bv_marker.asc

WARNING: Less than two connections to node OUT.  This node is used by B1.
Direct Newton iteration for .op point succeeded.

Date: Sat Feb 14 18:37:11 2015
Total elapsed time: 0.024 seconds.

tnom = 27
temp = 27
method = modified trap
totiter = 2093
traniter = 2090
tranpoints = 1046
accept = 1046
rejected = 0
matrix size = 2
fillins = 0
solver = Normal
Matrix Compiler1:       1 opcodes  0.2/[0.2]/0.2
Matrix Compiler2: off  [0.2]/0.3/0.3


