Circuit: * Z:\home\mainster\CODES_local\LTSpice_projects\HF_technik\Draft7.asc

WARNING: Less than two connections to node NC_01.  This node is used by R3.
WARNING: Less than two connections to node P1.  This node is used by V:U1:1.
WARNING: Less than two connections to node N001.  This node is used by V3.
Direct Newton iteration for .op point succeeded.

Date: Mon Nov 16 23:25:13 2015
Total elapsed time: 0.064 seconds.

tnom = 27
temp = 27
method = modified trap
totiter = 2969
traniter = 2966
tranpoints = 1484
accept = 1220
rejected = 264
matrix size = 10
fillins = 0
solver = Normal
Matrix Compiler1: 202 bytes object code size  0.2/0.2/[0.2]
Matrix Compiler2: 490 bytes object code size  0.2/0.3/[0.2]


