Circuit: * Z:\home\mainster\CODES_local\LTSpice_projects\HF_technik\fehlanpassung_gustrau_S107.asc

WARNING: Less than two connections to node DELAY.  This node is used by V2.
Direct Newton iteration for .op point succeeded.

Date: Thu Nov 12 22:24:14 2015
Total elapsed time: 0.175 seconds.

tnom = 27
temp = 27
method = modified trap
totiter = 8419
traniter = 8416
tranpoints = 4209
accept = 4157
rejected = 52
matrix size = 18
fillins = 8
solver = Normal
Matrix Compiler1: 1.18 KB object code size  0.6/0.7/[0.4]
Matrix Compiler2: 1.40 KB object code size  0.4/0.6/[0.3]


