Circuit: * Z:\home\mainster\CODES_local\LTSpice_projects\HF_technik\HFSS11_2.asc

WARNING: Less than two connections to node VIN.  This node is used by RG1.
WARNING: Less than two connections to node REALZ.  This node is used by V1.
WARNING: Less than two connections to node CZ.  This node is used by V2.

Date: Wed Jan 07 01:17:06 2015
Total elapsed time: 0.134 seconds.

tnom = 27
temp = 27
method = trap
totiter = 0
traniter = 0
tranpoints = 0
accept = 0
rejected = 0
matrix size = 33
fillins = 32
solver = Normal

