Circuit: * Z:\home\mainster\CODES_local\LTSpice_projects\HF_technik\HFSS11_1.asc

WARNING: Less than two connections to node QGES.  This node is used by V1.
WARNING: Less than two connections to node N002 of instance R1:  Node and device optimized out.
WARNING: Less than two connections to node QQ.  This node is used by V4.
Direct Newton iteration for .op point succeeded.

Date: Mon Jan 05 06:59:47 2015
Total elapsed time: 0.125 seconds.

tnom = 27
temp = 27
method = modified trap
totiter = 11505
traniter = 11502
tranpoints = 5752
accept = 4126
rejected = 1626
matrix size = 15
fillins = 2
solver = Normal
Matrix Compiler1: 362 bytes object code size  0.6/0.4/[0.4]
Matrix Compiler2: 739 bytes object code size  0.4/0.5/[0.3]


