Circuit: * Z:\home\mainster\CODES_local\LTSpice_projects\HF_technik\kapazHochpunktKopp_schwingkreis.asc


Date: Thu Nov 12 22:54:32 2015
Total elapsed time: 0.011 seconds.

tnom = 27
temp = 27
method = trap
totiter = 0
traniter = 0
tranpoints = 0
accept = 0
rejected = 0
matrix size = 7
fillins = 0
solver = Normal

