Circuit: * Z:\home\mainster\CODES_local\LTSpice_projects\HF_technik\leitungsanpassung_skript_S74.asc

R7: both pins shorted together -- ignoring.
WARNING: Less than two connections to node LAMBDA.  This node is used by V1.
WARNING: Less than two connections to node TD1.  This node is used by V2.
WARNING: Less than two connections to node TD2.  This node is used by V3.
WARNING: Less than two connections to node Z1C.  This node is used by B1.
Direct Newton iteration for .op point succeeded.

Date: Mon Jan 05 16:48:54 2015
Total elapsed time: 28.003 seconds.

tnom = 27
temp = 27
method = modified trap
totiter = 11800037
traniter = 11800034
tranpoints = 4000012
accept = 2400020
rejected = 1599992
matrix size = 21
fillins = 2
solver = Normal
Matrix Compiler1: 756 bytes object code size  0.8/0.5/[0.5]
Matrix Compiler2: 1,21 KB object code size  0.5/0.7/[0.5]


