Circuit: * Z:\home\mainster\CODES_local\LTSpice_projects\HF_technik\leitungsanpassung_skript_S74_GHET.asc


Date: Mon Jan 05 19:15:03 2015
Total elapsed time: 0.118 seconds.

tnom = 27
temp = 27
method = trap
totiter = 0
traniter = 0
tranpoints = 0
accept = 0
rejected = 0
matrix size = 25
fillins = 14
solver = Normal

