Circuit: * Z:\home\mainster\CODES_local\LTSpice_projects\HF_technik\leitungsanpassung_smith.asc

WARNING: Less than two connections to node LAMBDA.  This node is used by V1.
WARNING: Less than two connections to node TD1.  This node is used by V2.
WARNING: Less than two connections to node TD2.  This node is used by V3.
WARNING: Less than two connections to node TRF1 of instance L2:  Node and device optimized out.
WARNING: Less than two connections to node N011.  This node is used by B1.
Direct Newton iteration for .op point succeeded.

Date: Mon Jan 05 15:38:31 2015
Total elapsed time: 0.039 seconds.

tnom = 27
temp = 27
method = trap
totiter = 3
traniter = 0
tranpoints = 0
accept = 0
rejected = 0
matrix size = 38
fillins = 22
solver = Normal
Matrix Compiler1:     152 opcodes
Matrix Compiler2: 2,88 KB object code size

