Circuit: * Z:\home\mainster\CODES_local\LTSpice_projects\HF_technik\stichleitung_passt.asc

WARNING: Less than two connections to node VIN.  This node is used by RG1.
WARNING: Less than two connections to node REALZ.  This node is used by V1.
WARNING: Less than two connections to node CZ.  This node is used by V2.
Direct Newton iteration for .op point succeeded.

Date: Tue Jan 06 22:59:14 2015
Total elapsed time: 0.811 seconds.

tnom = 27
temp = 27
method = trap
totiter = 3
traniter = 0
tranpoints = 0
accept = 0
rejected = 0
matrix size = 36
fillins = 10
solver = Normal
Matrix Compiler1: 1.81 KB object code size
Matrix Compiler2: 2.47 KB object code size

