Circuit: * Z:\home\mainster\CODES_local\LTSpice_projects\HF_technik\transmissionline_reflections.asc

.OP point found by inspection.

Date: Mon Jan 05 19:58:39 2015
Total elapsed time: 0.046 seconds.

tnom = 27
temp = 27
method = modified trap
totiter = 2116
traniter = 2116
tranpoints = 1059
accept = 1056
rejected = 3
matrix size = 20
fillins = 7
solver = Normal
Matrix Compiler1: 1018 bytes object code size  0.9/0.7/[0.5]
Matrix Compiler2: 1,51 KB object code size  0.5/0.7/[0.4]


