Circuit: * Z:\home\mainster\CODES_local\LTSpice_projects\HF_technik\uebbl_2.asc

Number of points per octave reduced from 10000 to 4920.
WARNING: Less than two connections to node QG.  This node is used by B1.
WARNING: Less than two connections to node QG2.  This node is used by B4.
.OP point found by inspection.

Date: Fri Nov 13 06:40:22 2015
Total elapsed time: 0.826 seconds.

tnom = 27
temp = 27
method = trap
totiter = 0
traniter = 0
tranpoints = 0
accept = 0
rejected = 0
matrix size = 25
fillins = 24
solver = Normal

