Circuit: * Z:\home\mainster\CODES_local\LTSpice_projects\digitals\digital_noise_gen_hierarch.asc

Warning: Multiple definitions of model "dio2" Type: Diode
Warning: Multiple definitions of model "sw_hc2" Type: Switch
Warning: Multiple definitions of model "sw_hc1" Type: Switch
Warning: Multiple definitions of model "cd40dio1" Type: Diode
WARNING: Less than two connections to node NC_01.  This node is used by A:U21:1.
WARNING: Less than two connections to node NC_02.  This node is used by A:U22:1.
WARNING: Less than two connections to node NC_08.  This node is used by R:U23:2.
WARNING: Less than two connections to node U23:U4:DP.  This node is used by A:U23:U4:DDEL.
WARNING: Less than two connections to node U23:U9:DP.  This node is used by A:U23:U9:DDEL.
WARNING: Less than two connections to node NC_04.  This node is used by R:U23:U10:OUT:OUT.
WARNING: Less than two connections to node U23:U11:DP.  This node is used by A:U23:U11:DDEL.
WARNING: Less than two connections to node NC_03.  This node is used by R:U23:U12:OUT:OUT.
WARNING: Less than two connections to node U23:U13:DP.  This node is used by A:U23:U13:DDEL.
WARNING: Less than two connections to node U23:NC_05.  This node is used by R:U23:U13:OUT1:OUT.
WARNING: Less than two connections to node U23:U16:DP.  This node is used by A:U23:U16:DDEL.
WARNING: Less than two connections to node NC_07.  This node is used by R:U23:U17:OUT:OUT.
WARNING: Less than two connections to node U23:U21:DP.  This node is used by A:U23:U21:DDEL.
WARNING: Less than two connections to node NC_06.  This node is used by R:U23:U22:OUT:OUT.
WARNING: Less than two connections to node U23:U23:DP.  This node is used by A:U23:U23:DDEL.
WARNING: Less than two connections to node NC_05.  This node is used by R:U23:U24:OUT:OUT.
WARNING: Less than two connections to node U23:U25:DP.  This node is used by A:U23:U25:DDEL.
WARNING: Less than two connections to node U23:NC_10.  This node is used by R:U23:U25:OUT1:OUT.
WARNING: Less than two connections to node NC_09.  This node is used by A:U1:1.
Direct Newton iteration for .op point succeeded.
Ignoring empty pin current: Ix(u23:u2:vdd)
Ignoring empty pin current: Ix(u23:u3:vdd)
Ignoring empty pin current: Ix(u23:u4:vdd)
Ignoring empty pin current: Ix(u23:u5:vdd)
Ignoring empty pin current: Ix(u23:u6:vdd)
Ignoring empty pin current: Ix(u23:u7:vdd)
Ignoring empty pin current: Ix(u23:u8:vdd)
Ignoring empty pin current: Ix(u23:u9:vdd)
Ignoring empty pin current: Ix(u23:u10:vdd)
Ignoring empty pin current: Ix(u23:u11:vdd)
Ignoring empty pin current: Ix(u23:u12:vdd)
Ignoring empty pin current: Ix(u23:u13:vdd)
Ignoring empty pin current: Ix(u23:u14:vdd)
Ignoring empty pin current: Ix(u23:u1:vdd)
Ignoring empty pin current: Ix(u23:u15:vdd)
Ignoring empty pin current: Ix(u23:u16:vdd)
Ignoring empty pin current: Ix(u23:u17:vdd)
Ignoring empty pin current: Ix(u23:u18:vdd)
Ignoring empty pin current: Ix(u23:u19:vdd)
Ignoring empty pin current: Ix(u23:u20:vdd)
Ignoring empty pin current: Ix(u23:u21:vdd)
Ignoring empty pin current: Ix(u23:u22:vdd)
Ignoring empty pin current: Ix(u23:u23:vdd)
Ignoring empty pin current: Ix(u23:u24:vdd)
Ignoring empty pin current: Ix(u23:u25:vdd)
Ignoring empty pin current: Ix(u23:u26:vdd)
Ignoring empty pin current: Ix(u23:u2:in1:vdd)
Ignoring empty pin current: Ix(u23:u2:out:vdd)
Ignoring empty pin current: Ix(u23:u3:in1:vdd)
Ignoring empty pin current: Ix(u23:u3:out:vdd)
Ignoring empty pin current: Ix(u23:u4:in1:vdd)
Ignoring empty pin current: Ix(u23:u4:in2:vdd)
Ignoring empty pin current: Ix(u23:u4:in3:vdd)
Ignoring empty pin current: Ix(u23:u4:in4:vdd)
Ignoring empty pin current: Ix(u23:u4:out1:vdd)
Ignoring empty pin current: Ix(u23:u4:out2:vdd)
Ignoring empty pin current: Ix(u23:u5:in1:vdd)
Ignoring empty pin current: Ix(u23:u5:out:vdd)
Ignoring empty pin current: Ix(u23:u6:in1:vdd)
Ignoring empty pin current: Ix(u23:u6:out:vdd)
Ignoring empty pin current: Ix(u23:u7:in1:vdd)
Ignoring empty pin current: Ix(u23:u7:out:vdd)
Ignoring empty pin current: Ix(u23:u8:in1:vdd)
Ignoring empty pin current: Ix(u23:u8:out:vdd)
Ignoring empty pin current: Ix(u23:u9:in1:vdd)
Ignoring empty pin current: Ix(u23:u9:in2:vdd)
Ignoring empty pin current: Ix(u23:u9:in3:vdd)
Ignoring empty pin current: Ix(u23:u9:in4:vdd)
Ignoring empty pin current: Ix(u23:u9:out1:vdd)
Ignoring empty pin current: Ix(u23:u9:out2:vdd)
Ignoring empty pin current: Ix(u23:u10:in1:vdd)
Ignoring empty pin current: Ix(u23:u10:out:vdd)
Ignoring empty pin current: Ix(u23:u11:in1:vdd)
Ignoring empty pin current: Ix(u23:u11:in2:vdd)
Ignoring empty pin current: Ix(u23:u11:in3:vdd)
Ignoring empty pin current: Ix(u23:u11:in4:vdd)
Ignoring empty pin current: Ix(u23:u11:out1:vdd)
Ignoring empty pin current: Ix(u23:u11:out2:vdd)
Ignoring empty pin current: Ix(u23:u12:in1:vdd)
Ignoring empty pin current: Ix(u23:u12:out:vdd)
Ignoring empty pin current: Ix(u23:u13:in1:vdd)
Ignoring empty pin current: Ix(u23:u13:in2:vdd)
Ignoring empty pin current: Ix(u23:u13:in3:vdd)
Ignoring empty pin current: Ix(u23:u13:in4:vdd)
Ignoring empty pin current: Ix(u23:u13:out1:vdd)
Ignoring empty pin current: Ix(u23:u13:out2:vdd)
Ignoring empty pin current: Ix(u23:u14:in1:vdd)
Ignoring empty pin current: Ix(u23:u14:out:vdd)
Ignoring empty pin current: Ix(u23:u1:in1:vdd)
Ignoring empty pin current: Ix(u23:u1:out:vdd)
Ignoring empty pin current: Ix(u23:u15:in1:vdd)
Ignoring empty pin current: Ix(u23:u15:out:vdd)
Ignoring empty pin current: Ix(u23:u16:in1:vdd)
Ignoring empty pin current: Ix(u23:u16:in2:vdd)
Ignoring empty pin current: Ix(u23:u16:in3:vdd)
Ignoring empty pin current: Ix(u23:u16:in4:vdd)
Ignoring empty pin current: Ix(u23:u16:out1:vdd)
Ignoring empty pin current: Ix(u23:u16:out2:vdd)
Ignoring empty pin current: Ix(u23:u17:in1:vdd)
Ignoring empty pin current: Ix(u23:u17:out:vdd)
Ignoring empty pin current: Ix(u23:u18:in1:vdd)
Ignoring empty pin current: Ix(u23:u18:out:vdd)
Ignoring empty pin current: Ix(u23:u19:in1:vdd)
Ignoring empty pin current: Ix(u23:u19:out:vdd)
Ignoring empty pin current: Ix(u23:u20:in1:vdd)
Ignoring empty pin current: Ix(u23:u20:out:vdd)
Ignoring empty pin current: Ix(u23:u21:in1:vdd)
Ignoring empty pin current: Ix(u23:u21:in2:vdd)
Ignoring empty pin current: Ix(u23:u21:in3:vdd)
Ignoring empty pin current: Ix(u23:u21:in4:vdd)
Ignoring empty pin current: Ix(u23:u21:out1:vdd)
Ignoring empty pin current: Ix(u23:u21:out2:vdd)
Ignoring empty pin current: Ix(u23:u22:in1:vdd)
Ignoring empty pin current: Ix(u23:u22:out:vdd)
Ignoring empty pin current: Ix(u23:u23:in1:vdd)
Ignoring empty pin current: Ix(u23:u23:in2:vdd)
Ignoring empty pin current: Ix(u23:u23:in3:vdd)
Ignoring empty pin current: Ix(u23:u23:in4:vdd)
Ignoring empty pin current: Ix(u23:u23:out1:vdd)
Ignoring empty pin current: Ix(u23:u23:out2:vdd)
Ignoring empty pin current: Ix(u23:u24:in1:vdd)
Ignoring empty pin current: Ix(u23:u24:out:vdd)
Ignoring empty pin current: Ix(u23:u25:in1:vdd)
Ignoring empty pin current: Ix(u23:u25:in2:vdd)
Ignoring empty pin current: Ix(u23:u25:in3:vdd)
Ignoring empty pin current: Ix(u23:u25:in4:vdd)
Ignoring empty pin current: Ix(u23:u25:out1:vdd)
Ignoring empty pin current: Ix(u23:u25:out2:vdd)
Ignoring empty pin current: Ix(u23:u26:in1:vdd)
Ignoring empty pin current: Ix(u23:u26:out:vdd)
Ignoring empty pin current: Ix(u23:u2:vdd)
Ignoring empty pin current: Ix(u23:u3:vdd)
Ignoring empty pin current: Ix(u23:u4:vdd)
Ignoring empty pin current: Ix(u23:u5:vdd)
Ignoring empty pin current: Ix(u23:u6:vdd)
Ignoring empty pin current: Ix(u23:u7:vdd)
Ignoring empty pin current: Ix(u23:u8:vdd)
Ignoring empty pin current: Ix(u23:u9:vdd)
Ignoring empty pin current: Ix(u23:u10:vdd)
Ignoring empty pin current: Ix(u23:u11:vdd)
Ignoring empty pin current: Ix(u23:u12:vdd)
Ignoring empty pin current: Ix(u23:u13:vdd)
Ignoring empty pin current: Ix(u23:u14:vdd)
Ignoring empty pin current: Ix(u23:u1:vdd)
Ignoring empty pin current: Ix(u23:u15:vdd)
Ignoring empty pin current: Ix(u23:u16:vdd)
Ignoring empty pin current: Ix(u23:u17:vdd)
Ignoring empty pin current: Ix(u23:u18:vdd)
Ignoring empty pin current: Ix(u23:u19:vdd)
Ignoring empty pin current: Ix(u23:u20:vdd)
Ignoring empty pin current: Ix(u23:u21:vdd)
Ignoring empty pin current: Ix(u23:u22:vdd)
Ignoring empty pin current: Ix(u23:u23:vdd)
Ignoring empty pin current: Ix(u23:u24:vdd)
Ignoring empty pin current: Ix(u23:u25:vdd)
Ignoring empty pin current: Ix(u23:u26:vdd)
Ignoring empty pin current: Ix(u23:u2:in1:vdd)
Ignoring empty pin current: Ix(u23:u2:out:vdd)
Ignoring empty pin current: Ix(u23:u3:in1:vdd)
Ignoring empty pin current: Ix(u23:u3:out:vdd)
Ignoring empty pin current: Ix(u23:u4:in1:vdd)
Ignoring empty pin current: Ix(u23:u4:in2:vdd)
Ignoring empty pin current: Ix(u23:u4:in3:vdd)
Ignoring empty pin current: Ix(u23:u4:in4:vdd)
Ignoring empty pin current: Ix(u23:u4:out1:vdd)
Ignoring empty pin current: Ix(u23:u4:out2:vdd)
Ignoring empty pin current: Ix(u23:u5:in1:vdd)
Ignoring empty pin current: Ix(u23:u5:out:vdd)
Ignoring empty pin current: Ix(u23:u6:in1:vdd)
Ignoring empty pin current: Ix(u23:u6:out:vdd)
Ignoring empty pin current: Ix(u23:u7:in1:vdd)
Ignoring empty pin current: Ix(u23:u7:out:vdd)
Ignoring empty pin current: Ix(u23:u8:in1:vdd)
Ignoring empty pin current: Ix(u23:u8:out:vdd)
Ignoring empty pin current: Ix(u23:u9:in1:vdd)
Ignoring empty pin current: Ix(u23:u9:in2:vdd)
Ignoring empty pin current: Ix(u23:u9:in3:vdd)
Ignoring empty pin current: Ix(u23:u9:in4:vdd)
Ignoring empty pin current: Ix(u23:u9:out1:vdd)
Ignoring empty pin current: Ix(u23:u9:out2:vdd)
Ignoring empty pin current: Ix(u23:u10:in1:vdd)
Ignoring empty pin current: Ix(u23:u10:out:vdd)
Ignoring empty pin current: Ix(u23:u11:in1:vdd)
Ignoring empty pin current: Ix(u23:u11:in2:vdd)
Ignoring empty pin current: Ix(u23:u11:in3:vdd)
Ignoring empty pin current: Ix(u23:u11:in4:vdd)
Ignoring empty pin current: Ix(u23:u11:out1:vdd)
Ignoring empty pin current: Ix(u23:u11:out2:vdd)
Ignoring empty pin current: Ix(u23:u12:in1:vdd)
Ignoring empty pin current: Ix(u23:u12:out:vdd)
Ignoring empty pin current: Ix(u23:u13:in1:vdd)
Ignoring empty pin current: Ix(u23:u13:in2:vdd)
Ignoring empty pin current: Ix(u23:u13:in3:vdd)
Ignoring empty pin current: Ix(u23:u13:in4:vdd)
Ignoring empty pin current: Ix(u23:u13:out1:vdd)
Ignoring empty pin current: Ix(u23:u13:out2:vdd)
Ignoring empty pin current: Ix(u23:u14:in1:vdd)
Ignoring empty pin current: Ix(u23:u14:out:vdd)
Ignoring empty pin current: Ix(u23:u1:in1:vdd)
Ignoring empty pin current: Ix(u23:u1:out:vdd)
Ignoring empty pin current: Ix(u23:u15:in1:vdd)
Ignoring empty pin current: Ix(u23:u15:out:vdd)
Ignoring empty pin current: Ix(u23:u16:in1:vdd)
Ignoring empty pin current: Ix(u23:u16:in2:vdd)
Ignoring empty pin current: Ix(u23:u16:in3:vdd)
Ignoring empty pin current: Ix(u23:u16:in4:vdd)
Ignoring empty pin current: Ix(u23:u16:out1:vdd)
Ignoring empty pin current: Ix(u23:u16:out2:vdd)
Ignoring empty pin current: Ix(u23:u17:in1:vdd)
Ignoring empty pin current: Ix(u23:u17:out:vdd)
Ignoring empty pin current: Ix(u23:u18:in1:vdd)
Ignoring empty pin current: Ix(u23:u18:out:vdd)
Ignoring empty pin current: Ix(u23:u19:in1:vdd)
Ignoring empty pin current: Ix(u23:u19:out:vdd)
Ignoring empty pin current: Ix(u23:u20:in1:vdd)
Ignoring empty pin current: Ix(u23:u20:out:vdd)
Ignoring empty pin current: Ix(u23:u21:in1:vdd)
Ignoring empty pin current: Ix(u23:u21:in2:vdd)
Ignoring empty pin current: Ix(u23:u21:in3:vdd)
Ignoring empty pin current: Ix(u23:u21:in4:vdd)
Ignoring empty pin current: Ix(u23:u21:out1:vdd)
Ignoring empty pin current: Ix(u23:u21:out2:vdd)
Ignoring empty pin current: Ix(u23:u22:in1:vdd)
Ignoring empty pin current: Ix(u23:u22:out:vdd)
Ignoring empty pin current: Ix(u23:u23:in1:vdd)
Ignoring empty pin current: Ix(u23:u23:in2:vdd)
Ignoring empty pin current: Ix(u23:u23:in3:vdd)
Ignoring empty pin current: Ix(u23:u23:in4:vdd)
Ignoring empty pin current: Ix(u23:u23:out1:vdd)
Ignoring empty pin current: Ix(u23:u23:out2:vdd)
Ignoring empty pin current: Ix(u23:u24:in1:vdd)
Ignoring empty pin current: Ix(u23:u24:out:vdd)
Ignoring empty pin current: Ix(u23:u25:in1:vdd)
Ignoring empty pin current: Ix(u23:u25:in2:vdd)
Ignoring empty pin current: Ix(u23:u25:in3:vdd)
Ignoring empty pin current: Ix(u23:u25:in4:vdd)
Ignoring empty pin current: Ix(u23:u25:out1:vdd)
Ignoring empty pin current: Ix(u23:u25:out2:vdd)
Ignoring empty pin current: Ix(u23:u26:in1:vdd)
Ignoring empty pin current: Ix(u23:u26:out:vdd)
Heightened Def Con from 0.00128532 to 0.00128532

Date: Sat Feb 07 01:36:32 2015
Total elapsed time: 19.770 seconds.

tnom = 27
temp = 27
method = modified trap
totiter = 112143
traniter = 112123
tranpoints = 53439
accept = 43034
rejected = 10406
matrix size = 428
fillins = 17
solver = Normal
Thread vector: 39.8/19.1[6] 14.8/7.9[6] 11.8/5.2[6] 1.4/2.0[1]  2592/500
Matrix Compiler1: 10.9 KB object code size  5.6/2.9/[2.0]
Matrix Compiler2: 21.8 KB object code size  4.7/6.2/[3.0]


