Circuit: * Z:\home\mainster\CODES_local\LTSpice_projects\digitals\Draft2.asc

Direct Newton iteration failed to find .op point.  (Use ".option noopiter" to skip.)
Starting Gmin stepping
Gmin = 10
Gmin = 1.07374
Gmin = 0.115292
Gmin = 0.0123794
Gmin = 0.00132923
Gmin = 0.000142725
Gmin = 1.5325e-005
Gmin = 1.6455e-006
Gmin = 1.76685e-007
Gmin = 1.89714e-008
Gmin = 2.03704e-009
Gmin = 2.18725e-010
Gmin = 2.34854e-011
Gmin = 2.52173e-012
Gmin = 2.70769e-013
Gmin = 0
Gmin stepping succeeded in finding the operating point.

Ignoring empty pin current: Ix(u3:1)
Ignoring empty pin current: Ix(u3:2)
Ignoring empty pin current: Ix(u3:1)
Ignoring empty pin current: Ix(u3:2)

Date: Sat Feb 07 02:03:51 2015
Total elapsed time: 5.697 seconds.

tnom = 27
temp = 27
method = modified trap
totiter = 1247474
traniter = 1247118
tranpoints = 289698
accept = 205386
rejected = 84312
matrix size = 9
fillins = 0
solver = Normal
Matrix Compiler1: 188 bytes object code size  0.2/0.2/[0.2]
Matrix Compiler2: 497 bytes object code size  0.2/0.3/[0.2]


