Circuit: * Z:\home\mainster\CODES_local\LTSpice_projects\digitals\klausur_2014_A1.asc

WARNING: Less than two connections to node NC_01.  This node is used by A:R1:1.
WARNING: Less than two connections to node NOISE.  This node is used by B1.
WARNING: Less than two connections to node NC_06.  This node is used by A:R0:1.
WARNING: Less than two connections to node NC_07.  This node is used by A:U18:1.
WARNING: Less than two connections to node NC_08.  This node is used by A:U21:1.
WARNING: Less than two connections to node NC_09.  This node is used by A:U22:1.
WARNING: Less than two connections to node NC_10.  This node is used by A:U19:1.
WARNING: Less than two connections to node NC_11.  This node is used by A:U23:1.
WARNING: Less than two connections to node NC_12.  This node is used by A:U24:1.
WARNING: Less than two connections to node NC_17.  This node is used by A:U29:9.
WARNING: Less than two connections to node NC_18.  This node is used by A:U6:1.
Direct Newton iteration for .op point succeeded.
Ignoring empty pin current: Ix(r1:clk)
Ignoring empty pin current: Ix(r1:clr)
Ignoring empty pin current: Ix(u13:clk)
Ignoring empty pin current: Ix(u13:clr)
Ignoring empty pin current: Ix(u13:pre)
Ignoring empty pin current: Ix(r0:clk)
Ignoring empty pin current: Ix(r0:clr)
Ignoring empty pin current: Ix(u20:in)
Ignoring empty pin current: Ix(u25:in)
Ignoring empty pin current: Ix(u26:in)
Ignoring empty pin current: Ix(u27:in)
Ignoring empty pin current: Ix(u28:in)
Ignoring empty pin current: Ix(u29:clk)
Ignoring empty pin current: Ix(u29:clr)
Ignoring empty pin current: Ix(u29:pre)
Ignoring empty pin current: Ix(r1:clk)
Ignoring empty pin current: Ix(r1:clr)
Ignoring empty pin current: Ix(u13:clk)
Ignoring empty pin current: Ix(u13:clr)
Ignoring empty pin current: Ix(u13:pre)
Ignoring empty pin current: Ix(r0:clk)
Ignoring empty pin current: Ix(r0:clr)
Ignoring empty pin current: Ix(u20:in)
Ignoring empty pin current: Ix(u25:in)
Ignoring empty pin current: Ix(u26:in)
Ignoring empty pin current: Ix(u27:in)
Ignoring empty pin current: Ix(u28:in)
Ignoring empty pin current: Ix(u29:clk)
Ignoring empty pin current: Ix(u29:clr)
Ignoring empty pin current: Ix(u29:pre)

Date: Sat Jul 18 03:42:01 2015
Total elapsed time: 0.248 seconds.

tnom = 27
temp = 27
method = modified trap
totiter = 5961
traniter = 5956
tranpoints = 2926
accept = 2519
rejected = 407
matrix size = 84
fillins = 0
solver = Normal
Thread vector: 7.3/4.5[3] 1.8/1.6[1] 1.8/1.4[2] 0.5/0.9[1]  2592/500
Matrix Compiler1: 1.57 KB object code size  1.3/0.9/[0.8]
Matrix Compiler2: 3.77 KB object code size  1.2/1.6/[0.6]


