Circuit: * Z:\home\mainster\CODES_local\LTSpice_projects\digitals\mustererkennung_4bit_skript_v2.asc

WARNING: Less than two connections to node X1:NC_01.  This node is used by A:X1:U3:9.
WARNING: Less than two connections to node X1:NC_02.  This node is used by A:X1:U2:1.
WARNING: Less than two connections to node X1:NC_03.  This node is used by A:X1:U18:1.
WARNING: Less than two connections to node X1:NC_04.  This node is used by A:X1:U21:1.
WARNING: Less than two connections to node X1:N032.  This node is used by A:X1:U24:1.
WARNING: Less than two connections to node X1:NC_05.  This node is used by A:X1:U30:1.
WARNING: Less than two connections to node X1:NC_06.  This node is used by A:X1:U16:1.
WARNING: Less than two connections to node X1:NC_07.  This node is used by A:X1:U17:1.
WARNING: Less than two connections to node X1:NC_08.  This node is used by A:X1:U34:1.
WARNING: Less than two connections to node X1:NC_09.  This node is used by A:X1:U35:1.
WARNING: Less than two connections to node X1:NC_10.  This node is used by A:X1:U36:1.
WARNING: Less than two connections to node X1:NC_11.  This node is used by A:X1:U39:1.
WARNING: Less than two connections to node X1:NC_12.  This node is used by A:X1:U40:1.
WARNING: Less than two connections to node X1:NC_13.  This node is used by A:X1:U41:1.
WARNING: Less than two connections to node X1:NC_14.  This node is used by A:X1:U44:1.
WARNING: Less than two connections to node X1:N001.  This node is used by V:X1:2.
WARNING: Less than two connections to node X1:NC_15.  This node is used by A:X1:U4:9.
WARNING: Less than two connections to node X1:NC_16.  This node is used by A:X1:U12:1.
WARNING: Less than two connections to node X1:NC_17.  This node is used by A:X1:U46:1.
WARNING: Less than two connections to node X1:NC_18.  This node is used by A:X1:U48:1.
WARNING: Less than two connections to node X1:NC_19.  This node is used by A:X1:U50:1.
WARNING: Less than two connections to node PAR.  This node is used by B:X1:1.
WARNING: Less than two connections to node X1:_QRS.  This node is used by A:X1:U60:1.
WARNING: Less than two connections to node NC_01.  This node is used by A:U3:1.
WARNING: Less than two connections to node NC_02.  This node is used by A:U4:1.
WARNING: Less than two connections to node NC_03.  This node is used by A:U5:1.
WARNING: Less than two connections to node NC_04.  This node is used by A:U6:1.
WARNING: Less than two connections to node NC_05.  This node is used by A:U7:1.
WARNING: Less than two connections to node NC_06.  This node is used by A:U16:1.
WARNING: Less than two connections to node NC_07.  This node is used by A:R2:1.
WARNING: Less than two connections to node NC_08.  This node is used by A:R1:1.
WARNING: Less than two connections to node NC_09.  This node is used by A:R0:1.
WARNING: Less than two connections to node NC_10.  This node is used by A:R3:1.
WARNING: Less than two connections to node N001.  This node is used by A:R3:1.
WARNING: Less than two connections to node NC_11.  This node is used by A:U30:1.
WARNING: Less than two connections to node NC_12.  This node is used by A:U31:1.
WARNING: Less than two connections to node NC_13.  This node is used by A:U32:1.
WARNING: Less than two connections to node NC_14.  This node is used by A:U33:1.
WARNING: Less than two connections to node NC_15.  This node is used by A:U34:1.
WARNING: Less than two connections to node NC_16.  This node is used by A:U35:1.
WARNING: Less than two connections to node NC_17.  This node is used by A:U36:1.
WARNING: Less than two connections to node NC_18.  This node is used by A:R4:1.
WARNING: Less than two connections to node NC_19.  This node is used by A:R5:1.
WARNING: Less than two connections to node NC_20.  This node is used by A:R6:1.
WARNING: Less than two connections to node NC_21.  This node is used by A:U40:1.
WARNING: Less than two connections to node MEA.  This node is used by A:U40:1.
WARNING: Less than two connections to node NC_22.  This node is used by V:U43:1.
WARNING: Less than two connections to node BITTABLE.  This node is used by B2.
WARNING: Less than two connections to node N008.  This node is used by V2.
WARNING: Less than two connections to node N010.  This node is used by V3.
WARNING: Less than two connections to node BITTABLE2.  This node is used by B5.
Direct Newton iteration for .op point succeeded.
Ignoring empty pin current: Ix(u3:i3)
Ignoring empty pin current: Ix(u3:i4)
Ignoring empty pin current: Ix(u18:in)
Ignoring empty pin current: Ix(u16:i3)
Ignoring empty pin current: Ix(u16:i4)
Ignoring empty pin current: Ix(u17:in)
Ignoring empty pin current: Ix(u37:in)
Ignoring empty pin current: Ix(u38:in)
Ignoring empty pin current: Ix(u39:in)
Ignoring empty pin current: Ix(u40:i3)
Ignoring empty pin current: Ix(u40:i4)
Ignoring empty pin current: Ix(u41:in)
Ignoring empty pin current: Ix(u42:in)
Ignoring empty pin current: Ix(u44:in)
Ignoring empty pin current: Ix(u4:i3)
Ignoring empty pin current: Ix(u4:i4)
Ignoring empty pin current: Ix(u12:in)
Ignoring empty pin current: Ix(u13:in)
Ignoring empty pin current: Ix(u10:in)
Ignoring empty pin current: Ix(u6:i3)
Ignoring empty pin current: Ix(u9:in)
Ignoring empty pin current: Ix(u11:in)
Ignoring empty pin current: Ix(u8:in)
Ignoring empty pin current: Ix(u14:in)
Ignoring empty pin current: Ix(u5:i3)
Ignoring empty pin current: Ix(u7:i3)
Ignoring empty pin current: Ix(r2:clk)
Ignoring empty pin current: Ix(r2:clr)
Ignoring empty pin current: Ix(r1:clk)
Ignoring empty pin current: Ix(r1:clr)
Ignoring empty pin current: Ix(r0:clk)
Ignoring empty pin current: Ix(r0:clr)
Ignoring empty pin current: Ix(r3:clk)
Ignoring empty pin current: Ix(r3:clr)
Ignoring empty pin current: Ix(r4:clk)
Ignoring empty pin current: Ix(r4:clr)
Ignoring empty pin current: Ix(r5:clk)
Ignoring empty pin current: Ix(r5:clr)
Ignoring empty pin current: Ix(r6:clk)
Ignoring empty pin current: Ix(r6:clr)
Ignoring empty pin current: Ix(x1:u3:clk)
Ignoring empty pin current: Ix(x1:u3:clr)
Ignoring empty pin current: Ix(x1:u3:pre)
Ignoring empty pin current: Ix(x1:u2:clk)
Ignoring empty pin current: Ix(x1:u2:clr)
Ignoring empty pin current: Ix(x1:u2:pre)
Ignoring empty pin current: Ix(x1:u19:in)
Ignoring empty pin current: Ix(x1:u20:in)
Ignoring empty pin current: Ix(x1:u22:in)
Ignoring empty pin current: Ix(x1:u23:in)
Ignoring empty pin current: Ix(x1:u16:clk)
Ignoring empty pin current: Ix(x1:u16:clr)
Ignoring empty pin current: Ix(x1:u16:pre)
Ignoring empty pin current: Ix(x1:u32:in)
Ignoring empty pin current: Ix(x1:u33:in)
Ignoring empty pin current: Ix(x1:u35:clk)
Ignoring empty pin current: Ix(x1:u35:clr)
Ignoring empty pin current: Ix(x1:u35:pre)
Ignoring empty pin current: Ix(x1:u37:in)
Ignoring empty pin current: Ix(x1:u38:in)
Ignoring empty pin current: Ix(x1:u40:clk)
Ignoring empty pin current: Ix(x1:u40:clr)
Ignoring empty pin current: Ix(x1:u40:pre)
Ignoring empty pin current: Ix(x1:u42:in)
Ignoring empty pin current: Ix(x1:u43:in)
Ignoring empty pin current: Ix(x1:u4:clk)
Ignoring empty pin current: Ix(x1:u4:clr)
Ignoring empty pin current: Ix(x1:u4:pre)
Ignoring empty pin current: Ix(x1:u49:in)
Ignoring empty pin current: Ix(x1:u10:clk)
Ignoring empty pin current: Ix(x1:u46:clk)
Ignoring empty pin current: Ix(x1:u9:clk)
Ignoring empty pin current: Ix(x1:u9:clr)
Ignoring empty pin current: Ix(x1:u9:pre)
Ignoring empty pin current: Ix(x1:u5:in)
Ignoring empty pin current: Ix(x1:u7:in)
Ignoring empty pin current: Ix(u3:i3)
Ignoring empty pin current: Ix(u3:i4)
Ignoring empty pin current: Ix(u18:in)
Ignoring empty pin current: Ix(u16:i3)
Ignoring empty pin current: Ix(u16:i4)
Ignoring empty pin current: Ix(u17:in)
Ignoring empty pin current: Ix(u37:in)
Ignoring empty pin current: Ix(u38:in)
Ignoring empty pin current: Ix(u39:in)
Ignoring empty pin current: Ix(u40:i3)
Ignoring empty pin current: Ix(u40:i4)
Ignoring empty pin current: Ix(u41:in)
Ignoring empty pin current: Ix(u42:in)
Ignoring empty pin current: Ix(u44:in)
Ignoring empty pin current: Ix(u4:i3)
Ignoring empty pin current: Ix(u4:i4)
Ignoring empty pin current: Ix(u12:in)
Ignoring empty pin current: Ix(u13:in)
Ignoring empty pin current: Ix(u10:in)
Ignoring empty pin current: Ix(u6:i3)
Ignoring empty pin current: Ix(u9:in)
Ignoring empty pin current: Ix(u11:in)
Ignoring empty pin current: Ix(u8:in)
Ignoring empty pin current: Ix(u14:in)
Ignoring empty pin current: Ix(u5:i3)
Ignoring empty pin current: Ix(u7:i3)
Ignoring empty pin current: Ix(r2:clk)
Ignoring empty pin current: Ix(r2:clr)
Ignoring empty pin current: Ix(r1:clk)
Ignoring empty pin current: Ix(r1:clr)
Ignoring empty pin current: Ix(r0:clk)
Ignoring empty pin current: Ix(r0:clr)
Ignoring empty pin current: Ix(r3:clk)
Ignoring empty pin current: Ix(r3:clr)
Ignoring empty pin current: Ix(r4:clk)
Ignoring empty pin current: Ix(r4:clr)
Ignoring empty pin current: Ix(r5:clk)
Ignoring empty pin current: Ix(r5:clr)
Ignoring empty pin current: Ix(r6:clk)
Ignoring empty pin current: Ix(r6:clr)
Ignoring empty pin current: Ix(x1:u3:clk)
Ignoring empty pin current: Ix(x1:u3:clr)
Ignoring empty pin current: Ix(x1:u3:pre)
Ignoring empty pin current: Ix(x1:u2:clk)
Ignoring empty pin current: Ix(x1:u2:clr)
Ignoring empty pin current: Ix(x1:u2:pre)
Ignoring empty pin current: Ix(x1:u19:in)
Ignoring empty pin current: Ix(x1:u20:in)
Ignoring empty pin current: Ix(x1:u22:in)
Ignoring empty pin current: Ix(x1:u23:in)
Ignoring empty pin current: Ix(x1:u16:clk)
Ignoring empty pin current: Ix(x1:u16:clr)
Ignoring empty pin current: Ix(x1:u16:pre)
Ignoring empty pin current: Ix(x1:u32:in)
Ignoring empty pin current: Ix(x1:u33:in)
Ignoring empty pin current: Ix(x1:u35:clk)
Ignoring empty pin current: Ix(x1:u35:clr)
Ignoring empty pin current: Ix(x1:u35:pre)
Ignoring empty pin current: Ix(x1:u37:in)
Ignoring empty pin current: Ix(x1:u38:in)
Ignoring empty pin current: Ix(x1:u40:clk)
Ignoring empty pin current: Ix(x1:u40:clr)
Ignoring empty pin current: Ix(x1:u40:pre)
Ignoring empty pin current: Ix(x1:u42:in)
Ignoring empty pin current: Ix(x1:u43:in)
Ignoring empty pin current: Ix(x1:u4:clk)
Ignoring empty pin current: Ix(x1:u4:clr)
Ignoring empty pin current: Ix(x1:u4:pre)
Ignoring empty pin current: Ix(x1:u49:in)
Ignoring empty pin current: Ix(x1:u10:clk)
Ignoring empty pin current: Ix(x1:u46:clk)
Ignoring empty pin current: Ix(x1:u9:clk)
Ignoring empty pin current: Ix(x1:u9:clr)
Ignoring empty pin current: Ix(x1:u9:pre)
Ignoring empty pin current: Ix(x1:u5:in)
Ignoring empty pin current: Ix(x1:u7:in)

Date: Mon Feb 09 11:47:24 2015
Total elapsed time: 0.568 seconds.

tnom = 27
temp = 27
method = modified trap
totiter = 3500
traniter = 3494
tranpoints = 1731
accept = 1449
rejected = 282
matrix size = 266
fillins = 0
solver = Normal
Thread vector: 23.7/11.5[6] 4.7/4.0[2] 4.8/4.7[1] 0.9/1.7[1]  2592/500
Matrix Compiler1: 5.43 KB object code size  3.1/1.9/[1.6]
Matrix Compiler2: 12.5 KB object code size  2.8/3.8/[1.4]


