Circuit: * Z:\home\mainster\CODES_local\LTSpice_projects\digitals\test_noiseGen_hierarch.asc

Warning: Multiple definitions of model "dio2" Type: Diode
Warning: Multiple definitions of model "sw_hc2" Type: Switch
Warning: Multiple definitions of model "sw_hc1" Type: Switch
Warning: Multiple definitions of model "cd40dio1" Type: Diode
WARNING: Less than two connections to node X1:NC_01.  This node is used by A:X1:U21:1.
WARNING: Less than two connections to node X1:NC_02.  This node is used by A:X1:U22:1.
WARNING: Less than two connections to node X1:NC_08.  This node is used by R:X1:U23:2.
WARNING: Less than two connections to node X1:U23:U4:DP.  This node is used by A:X1:U23:U4:DDEL.
WARNING: Less than two connections to node X1:U23:U9:DP.  This node is used by A:X1:U23:U9:DDEL.
WARNING: Less than two connections to node X1:NC_04.  This node is used by R:X1:U23:U10:OUT:OUT.
WARNING: Less than two connections to node X1:U23:U11:DP.  This node is used by A:X1:U23:U11:DDEL.
WARNING: Less than two connections to node X1:NC_03.  This node is used by R:X1:U23:U12:OUT:OUT.
WARNING: Less than two connections to node X1:U23:U13:DP.  This node is used by A:X1:U23:U13:DDEL.
WARNING: Less than two connections to node X1:U23:NC_05.  This node is used by R:X1:U23:U13:OUT1:OUT.
WARNING: Less than two connections to node X1:U23:U16:DP.  This node is used by A:X1:U23:U16:DDEL.
WARNING: Less than two connections to node X1:NC_07.  This node is used by R:X1:U23:U17:OUT:OUT.
WARNING: Less than two connections to node X1:U23:U21:DP.  This node is used by A:X1:U23:U21:DDEL.
WARNING: Less than two connections to node X1:NC_06.  This node is used by R:X1:U23:U22:OUT:OUT.
WARNING: Less than two connections to node X1:U23:U23:DP.  This node is used by A:X1:U23:U23:DDEL.
WARNING: Less than two connections to node X1:NC_05.  This node is used by R:X1:U23:U24:OUT:OUT.
WARNING: Less than two connections to node X1:U23:U25:DP.  This node is used by A:X1:U23:U25:DDEL.
WARNING: Less than two connections to node X1:U23:NC_10.  This node is used by R:X1:U23:U25:OUT1:OUT.
Direct Newton iteration for .op point succeeded.
Ignoring empty pin current: Ix(u23:1)
Ignoring empty pin current: Ix(u23:2)
Ignoring empty pin current: Ix(u23:3)
Ignoring empty pin current: Ix(u23:4)
Ignoring empty pin current: Ix(u23:5)
Ignoring empty pin current: Ix(u23:6)
Ignoring empty pin current: Ix(u23:7)
Ignoring empty pin current: Ix(u23:8)
Ignoring empty pin current: Ix(u23:9)
Ignoring empty pin current: Ix(u23:10)
Ignoring empty pin current: Ix(u23:11)
Ignoring empty pin current: Ix(u23:12)
Ignoring empty pin current: Ix(u23:13)
Ignoring empty pin current: Ix(u23:14)
Ignoring empty pin current: Ix(u23:15)
Ignoring empty pin current: Ix(u23:16)
Ignoring empty pin current: Ix(u23:u2:a)
Ignoring empty pin current: Ix(u23:u2:y)
Ignoring empty pin current: Ix(u23:u2:vdd)
Ignoring empty pin current: Ix(u23:u2:vgnd)
Ignoring empty pin current: Ix(u23:u3:a)
Ignoring empty pin current: Ix(u23:u3:y)
Ignoring empty pin current: Ix(u23:u3:vdd)
Ignoring empty pin current: Ix(u23:u3:vgnd)
Ignoring empty pin current: Ix(u23:u4:s)
Ignoring empty pin current: Ix(u23:u4:c)
Ignoring empty pin current: Ix(u23:u4:d)
Ignoring empty pin current: Ix(u23:u4:r)
Ignoring empty pin current: Ix(u23:u4:q)
Ignoring empty pin current: Ix(u23:u4:qn)
Ignoring empty pin current: Ix(u23:u4:vdd)
Ignoring empty pin current: Ix(u23:u4:vgnd)
Ignoring empty pin current: Ix(u23:u5:a)
Ignoring empty pin current: Ix(u23:u5:y)
Ignoring empty pin current: Ix(u23:u5:vdd)
Ignoring empty pin current: Ix(u23:u5:vgnd)
Ignoring empty pin current: Ix(u23:u6:a)
Ignoring empty pin current: Ix(u23:u6:y)
Ignoring empty pin current: Ix(u23:u6:vdd)
Ignoring empty pin current: Ix(u23:u6:vgnd)
Ignoring empty pin current: Ix(u23:u7:a)
Ignoring empty pin current: Ix(u23:u7:y)
Ignoring empty pin current: Ix(u23:u7:vdd)
Ignoring empty pin current: Ix(u23:u7:vgnd)
Ignoring empty pin current: Ix(u23:u8:a)
Ignoring empty pin current: Ix(u23:u8:y)
Ignoring empty pin current: Ix(u23:u8:vdd)
Ignoring empty pin current: Ix(u23:u8:vgnd)
Ignoring empty pin current: Ix(u23:u9:s)
Ignoring empty pin current: Ix(u23:u9:c)
Ignoring empty pin current: Ix(u23:u9:d)
Ignoring empty pin current: Ix(u23:u9:r)
Ignoring empty pin current: Ix(u23:u9:q)
Ignoring empty pin current: Ix(u23:u9:qn)
Ignoring empty pin current: Ix(u23:u9:vdd)
Ignoring empty pin current: Ix(u23:u9:vgnd)
Ignoring empty pin current: Ix(u23:u10:a)
Ignoring empty pin current: Ix(u23:u10:y)
Ignoring empty pin current: Ix(u23:u10:vdd)
Ignoring empty pin current: Ix(u23:u10:vgnd)
Ignoring empty pin current: Ix(u23:u11:s)
Ignoring empty pin current: Ix(u23:u11:c)
Ignoring empty pin current: Ix(u23:u11:d)
Ignoring empty pin current: Ix(u23:u11:r)
Ignoring empty pin current: Ix(u23:u11:q)
Ignoring empty pin current: Ix(u23:u11:qn)
Ignoring empty pin current: Ix(u23:u11:vdd)
Ignoring empty pin current: Ix(u23:u11:vgnd)
Ignoring empty pin current: Ix(u23:u12:a)
Ignoring empty pin current: Ix(u23:u12:y)
Ignoring empty pin current: Ix(u23:u12:vdd)
Ignoring empty pin current: Ix(u23:u12:vgnd)
Ignoring empty pin current: Ix(u23:u13:s)
Ignoring empty pin current: Ix(u23:u13:c)
Ignoring empty pin current: Ix(u23:u13:d)
Ignoring empty pin current: Ix(u23:u13:r)
Ignoring empty pin current: Ix(u23:u13:q)
Ignoring empty pin current: Ix(u23:u13:qn)
Ignoring empty pin current: Ix(u23:u13:vdd)
Ignoring empty pin current: Ix(u23:u13:vgnd)
Ignoring empty pin current: Ix(u23:u14:a)
Ignoring empty pin current: Ix(u23:u14:y)
Ignoring empty pin current: Ix(u23:u14:vdd)
Ignoring empty pin current: Ix(u23:u14:vgnd)
Ignoring empty pin current: Ix(u23:u1:a)
Ignoring empty pin current: Ix(u23:u1:y)
Ignoring empty pin current: Ix(u23:u1:vdd)
Ignoring empty pin current: Ix(u23:u1:vgnd)
Ignoring empty pin current: Ix(u23:u15:a)
Ignoring empty pin current: Ix(u23:u15:y)
Ignoring empty pin current: Ix(u23:u15:vdd)
Ignoring empty pin current: Ix(u23:u15:vgnd)
Ignoring empty pin current: Ix(u23:u16:s)
Ignoring empty pin current: Ix(u23:u16:c)
Ignoring empty pin current: Ix(u23:u16:d)
Ignoring empty pin current: Ix(u23:u16:r)
Ignoring empty pin current: Ix(u23:u16:q)
Ignoring empty pin current: Ix(u23:u16:qn)
Ignoring empty pin current: Ix(u23:u16:vdd)
Ignoring empty pin current: Ix(u23:u16:vgnd)
Ignoring empty pin current: Ix(u23:u17:a)
Ignoring empty pin current: Ix(u23:u17:y)
Ignoring empty pin current: Ix(u23:u17:vdd)
Ignoring empty pin current: Ix(u23:u17:vgnd)
Ignoring empty pin current: Ix(u23:u18:a)
Ignoring empty pin current: Ix(u23:u18:y)
Ignoring empty pin current: Ix(u23:u18:vdd)
Ignoring empty pin current: Ix(u23:u18:vgnd)
Ignoring empty pin current: Ix(u23:u19:a)
Ignoring empty pin current: Ix(u23:u19:y)
Ignoring empty pin current: Ix(u23:u19:vdd)
Ignoring empty pin current: Ix(u23:u19:vgnd)
Ignoring empty pin current: Ix(u23:u20:a)
Ignoring empty pin current: Ix(u23:u20:y)
Ignoring empty pin current: Ix(u23:u20:vdd)
Ignoring empty pin current: Ix(u23:u20:vgnd)
Ignoring empty pin current: Ix(u23:u21:s)
Ignoring empty pin current: Ix(u23:u21:c)
Ignoring empty pin current: Ix(u23:u21:d)
Ignoring empty pin current: Ix(u23:u21:r)
Ignoring empty pin current: Ix(u23:u21:q)
Ignoring empty pin current: Ix(u23:u21:qn)
Ignoring empty pin current: Ix(u23:u21:vdd)
Ignoring empty pin current: Ix(u23:u21:vgnd)
Ignoring empty pin current: Ix(u23:u22:a)
Ignoring empty pin current: Ix(u23:u22:y)
Ignoring empty pin current: Ix(u23:u22:vdd)
Ignoring empty pin current: Ix(u23:u22:vgnd)
Ignoring empty pin current: Ix(u23:u23:s)
Ignoring empty pin current: Ix(u23:u23:c)
Ignoring empty pin current: Ix(u23:u23:d)
Ignoring empty pin current: Ix(u23:u23:r)
Ignoring empty pin current: Ix(u23:u23:q)
Ignoring empty pin current: Ix(u23:u23:qn)
Ignoring empty pin current: Ix(u23:u23:vdd)
Ignoring empty pin current: Ix(u23:u23:vgnd)
Ignoring empty pin current: Ix(u23:u24:a)
Ignoring empty pin current: Ix(u23:u24:y)
Ignoring empty pin current: Ix(u23:u24:vdd)
Ignoring empty pin current: Ix(u23:u24:vgnd)
Ignoring empty pin current: Ix(u23:u25:s)
Ignoring empty pin current: Ix(u23:u25:c)
Ignoring empty pin current: Ix(u23:u25:d)
Ignoring empty pin current: Ix(u23:u25:r)
Ignoring empty pin current: Ix(u23:u25:q)
Ignoring empty pin current: Ix(u23:u25:qn)
Ignoring empty pin current: Ix(u23:u25:vdd)
Ignoring empty pin current: Ix(u23:u25:vgnd)
Ignoring empty pin current: Ix(u23:u26:a)
Ignoring empty pin current: Ix(u23:u26:y)
Ignoring empty pin current: Ix(u23:u26:vdd)
Ignoring empty pin current: Ix(u23:u26:vgnd)
Ignoring empty pin current: Ix(u23:u2:in1:in)
Ignoring empty pin current: Ix(u23:u2:in1:out)
Ignoring empty pin current: Ix(u23:u2:in1:vdd)
Ignoring empty pin current: Ix(u23:u2:in1:vgnd)
Ignoring empty pin current: Ix(u23:u2:out:in)
Ignoring empty pin current: Ix(u23:u2:out:out)
Ignoring empty pin current: Ix(u23:u2:out:vdd)
Ignoring empty pin current: Ix(u23:u2:out:vgnd)
Ignoring empty pin current: Ix(u23:u3:in1:in)
Ignoring empty pin current: Ix(u23:u3:in1:out)
Ignoring empty pin current: Ix(u23:u3:in1:vdd)
Ignoring empty pin current: Ix(u23:u3:in1:vgnd)
Ignoring empty pin current: Ix(u23:u3:out:in)
Ignoring empty pin current: Ix(u23:u3:out:out)
Ignoring empty pin current: Ix(u23:u3:out:vdd)
Ignoring empty pin current: Ix(u23:u3:out:vgnd)
Ignoring empty pin current: Ix(u23:u4:in1:in)
Ignoring empty pin current: Ix(u23:u4:in1:out)
Ignoring empty pin current: Ix(u23:u4:in1:vdd)
Ignoring empty pin current: Ix(u23:u4:in1:vgnd)
Ignoring empty pin current: Ix(u23:u4:in2:in)
Ignoring empty pin current: Ix(u23:u4:in2:out)
Ignoring empty pin current: Ix(u23:u4:in2:vdd)
Ignoring empty pin current: Ix(u23:u4:in2:vgnd)
Ignoring empty pin current: Ix(u23:u4:in3:in)
Ignoring empty pin current: Ix(u23:u4:in3:out)
Ignoring empty pin current: Ix(u23:u4:in3:vdd)
Ignoring empty pin current: Ix(u23:u4:in3:vgnd)
Ignoring empty pin current: Ix(u23:u4:in4:in)
Ignoring empty pin current: Ix(u23:u4:in4:out)
Ignoring empty pin current: Ix(u23:u4:in4:vdd)
Ignoring empty pin current: Ix(u23:u4:in4:vgnd)
Ignoring empty pin current: Ix(u23:u4:out1:in)
Ignoring empty pin current: Ix(u23:u4:out1:out)
Ignoring empty pin current: Ix(u23:u4:out1:vdd)
Ignoring empty pin current: Ix(u23:u4:out1:vgnd)
Ignoring empty pin current: Ix(u23:u4:out2:in)
Ignoring empty pin current: Ix(u23:u4:out2:out)
Ignoring empty pin current: Ix(u23:u4:out2:vdd)
Ignoring empty pin current: Ix(u23:u4:out2:vgnd)
Ignoring empty pin current: Ix(u23:u5:in1:in)
Ignoring empty pin current: Ix(u23:u5:in1:out)
Ignoring empty pin current: Ix(u23:u5:in1:vdd)
Ignoring empty pin current: Ix(u23:u5:in1:vgnd)
Ignoring empty pin current: Ix(u23:u5:out:in)
Ignoring empty pin current: Ix(u23:u5:out:out)
Ignoring empty pin current: Ix(u23:u5:out:vdd)
Ignoring empty pin current: Ix(u23:u5:out:vgnd)
Ignoring empty pin current: Ix(u23:u6:in1:in)
Ignoring empty pin current: Ix(u23:u6:in1:out)
Ignoring empty pin current: Ix(u23:u6:in1:vdd)
Ignoring empty pin current: Ix(u23:u6:in1:vgnd)
Ignoring empty pin current: Ix(u23:u6:out:in)
Ignoring empty pin current: Ix(u23:u6:out:out)
Ignoring empty pin current: Ix(u23:u6:out:vdd)
Ignoring empty pin current: Ix(u23:u6:out:vgnd)
Ignoring empty pin current: Ix(u23:u7:in1:in)
Ignoring empty pin current: Ix(u23:u7:in1:out)
Ignoring empty pin current: Ix(u23:u7:in1:vdd)
Ignoring empty pin current: Ix(u23:u7:in1:vgnd)
Ignoring empty pin current: Ix(u23:u7:out:in)
Ignoring empty pin current: Ix(u23:u7:out:out)
Ignoring empty pin current: Ix(u23:u7:out:vdd)
Ignoring empty pin current: Ix(u23:u7:out:vgnd)
Ignoring empty pin current: Ix(u23:u8:in1:in)
Ignoring empty pin current: Ix(u23:u8:in1:out)
Ignoring empty pin current: Ix(u23:u8:in1:vdd)
Ignoring empty pin current: Ix(u23:u8:in1:vgnd)
Ignoring empty pin current: Ix(u23:u8:out:in)
Ignoring empty pin current: Ix(u23:u8:out:out)
Ignoring empty pin current: Ix(u23:u8:out:vdd)
Ignoring empty pin current: Ix(u23:u8:out:vgnd)
Ignoring empty pin current: Ix(u23:u9:in1:in)
Ignoring empty pin current: Ix(u23:u9:in1:out)
Ignoring empty pin current: Ix(u23:u9:in1:vdd)
Ignoring empty pin current: Ix(u23:u9:in1:vgnd)
Ignoring empty pin current: Ix(u23:u9:in2:in)
Ignoring empty pin current: Ix(u23:u9:in2:out)
Ignoring empty pin current: Ix(u23:u9:in2:vdd)
Ignoring empty pin current: Ix(u23:u9:in2:vgnd)
Ignoring empty pin current: Ix(u23:u9:in3:in)
Ignoring empty pin current: Ix(u23:u9:in3:out)
Ignoring empty pin current: Ix(u23:u9:in3:vdd)
Ignoring empty pin current: Ix(u23:u9:in3:vgnd)
Ignoring empty pin current: Ix(u23:u9:in4:in)
Ignoring empty pin current: Ix(u23:u9:in4:out)
Ignoring empty pin current: Ix(u23:u9:in4:vdd)
Ignoring empty pin current: Ix(u23:u9:in4:vgnd)
Ignoring empty pin current: Ix(u23:u9:out1:in)
Ignoring empty pin current: Ix(u23:u9:out1:out)
Ignoring empty pin current: Ix(u23:u9:out1:vdd)
Ignoring empty pin current: Ix(u23:u9:out1:vgnd)
Ignoring empty pin current: Ix(u23:u9:out2:in)
Ignoring empty pin current: Ix(u23:u9:out2:out)
Ignoring empty pin current: Ix(u23:u9:out2:vdd)
Ignoring empty pin current: Ix(u23:u9:out2:vgnd)
Ignoring empty pin current: Ix(u23:u10:in1:in)
Ignoring empty pin current: Ix(u23:u10:in1:out)
Ignoring empty pin current: Ix(u23:u10:in1:vdd)
Ignoring empty pin current: Ix(u23:u10:in1:vgnd)
Ignoring empty pin current: Ix(u23:u10:out:in)
Ignoring empty pin current: Ix(u23:u10:out:out)
Ignoring empty pin current: Ix(u23:u10:out:vdd)
Ignoring empty pin current: Ix(u23:u10:out:vgnd)
Ignoring empty pin current: Ix(u23:u11:in1:in)
Ignoring empty pin current: Ix(u23:u11:in1:out)
Ignoring empty pin current: Ix(u23:u11:in1:vdd)
Ignoring empty pin current: Ix(u23:u11:in1:vgnd)
Ignoring empty pin current: Ix(u23:u11:in2:in)
Ignoring empty pin current: Ix(u23:u11:in2:out)
Ignoring empty pin current: Ix(u23:u11:in2:vdd)
Ignoring empty pin current: Ix(u23:u11:in2:vgnd)
Ignoring empty pin current: Ix(u23:u11:in3:in)
Ignoring empty pin current: Ix(u23:u11:in3:out)
Ignoring empty pin current: Ix(u23:u11:in3:vdd)
Ignoring empty pin current: Ix(u23:u11:in3:vgnd)
Ignoring empty pin current: Ix(u23:u11:in4:in)
Ignoring empty pin current: Ix(u23:u11:in4:out)
Ignoring empty pin current: Ix(u23:u11:in4:vdd)
Ignoring empty pin current: Ix(u23:u11:in4:vgnd)
Ignoring empty pin current: Ix(u23:u11:out1:in)
Ignoring empty pin current: Ix(u23:u11:out1:out)
Ignoring empty pin current: Ix(u23:u11:out1:vdd)
Ignoring empty pin current: Ix(u23:u11:out1:vgnd)
Ignoring empty pin current: Ix(u23:u11:out2:in)
Ignoring empty pin current: Ix(u23:u11:out2:out)
Ignoring empty pin current: Ix(u23:u11:out2:vdd)
Ignoring empty pin current: Ix(u23:u11:out2:vgnd)
Ignoring empty pin current: Ix(u23:u12:in1:in)
Ignoring empty pin current: Ix(u23:u12:in1:out)
Ignoring empty pin current: Ix(u23:u12:in1:vdd)
Ignoring empty pin current: Ix(u23:u12:in1:vgnd)
Ignoring empty pin current: Ix(u23:u12:out:in)
Ignoring empty pin current: Ix(u23:u12:out:out)
Ignoring empty pin current: Ix(u23:u12:out:vdd)
Ignoring empty pin current: Ix(u23:u12:out:vgnd)
Ignoring empty pin current: Ix(u23:u13:in1:in)
Ignoring empty pin current: Ix(u23:u13:in1:out)
Ignoring empty pin current: Ix(u23:u13:in1:vdd)
Ignoring empty pin current: Ix(u23:u13:in1:vgnd)
Ignoring empty pin current: Ix(u23:u13:in2:in)
Ignoring empty pin current: Ix(u23:u13:in2:out)
Ignoring empty pin current: Ix(u23:u13:in2:vdd)
Ignoring empty pin current: Ix(u23:u13:in2:vgnd)
Ignoring empty pin current: Ix(u23:u13:in3:in)
Ignoring empty pin current: Ix(u23:u13:in3:out)
Ignoring empty pin current: Ix(u23:u13:in3:vdd)
Ignoring empty pin current: Ix(u23:u13:in3:vgnd)
Ignoring empty pin current: Ix(u23:u13:in4:in)
Ignoring empty pin current: Ix(u23:u13:in4:out)
Ignoring empty pin current: Ix(u23:u13:in4:vdd)
Ignoring empty pin current: Ix(u23:u13:in4:vgnd)
Ignoring empty pin current: Ix(u23:u13:out1:in)
Ignoring empty pin current: Ix(u23:u13:out1:out)
Ignoring empty pin current: Ix(u23:u13:out1:vdd)
Ignoring empty pin current: Ix(u23:u13:out1:vgnd)
Ignoring empty pin current: Ix(u23:u13:out2:in)
Ignoring empty pin current: Ix(u23:u13:out2:out)
Ignoring empty pin current: Ix(u23:u13:out2:vdd)
Ignoring empty pin current: Ix(u23:u13:out2:vgnd)
Ignoring empty pin current: Ix(u23:u14:in1:in)
Ignoring empty pin current: Ix(u23:u14:in1:out)
Ignoring empty pin current: Ix(u23:u14:in1:vdd)
Ignoring empty pin current: Ix(u23:u14:in1:vgnd)
Ignoring empty pin current: Ix(u23:u14:out:in)
Ignoring empty pin current: Ix(u23:u14:out:out)
Ignoring empty pin current: Ix(u23:u14:out:vdd)
Ignoring empty pin current: Ix(u23:u14:out:vgnd)
Ignoring empty pin current: Ix(u23:u1:in1:in)
Ignoring empty pin current: Ix(u23:u1:in1:out)
Ignoring empty pin current: Ix(u23:u1:in1:vdd)
Ignoring empty pin current: Ix(u23:u1:in1:vgnd)
Ignoring empty pin current: Ix(u23:u1:out:in)
Ignoring empty pin current: Ix(u23:u1:out:out)
Ignoring empty pin current: Ix(u23:u1:out:vdd)
Ignoring empty pin current: Ix(u23:u1:out:vgnd)
Ignoring empty pin current: Ix(u23:u15:in1:in)
Ignoring empty pin current: Ix(u23:u15:in1:out)
Ignoring empty pin current: Ix(u23:u15:in1:vdd)
Ignoring empty pin current: Ix(u23:u15:in1:vgnd)
Ignoring empty pin current: Ix(u23:u15:out:in)
Ignoring empty pin current: Ix(u23:u15:out:out)
Ignoring empty pin current: Ix(u23:u15:out:vdd)
Ignoring empty pin current: Ix(u23:u15:out:vgnd)
Ignoring empty pin current: Ix(u23:u16:in1:in)
Ignoring empty pin current: Ix(u23:u16:in1:out)
Ignoring empty pin current: Ix(u23:u16:in1:vdd)
Ignoring empty pin current: Ix(u23:u16:in1:vgnd)
Ignoring empty pin current: Ix(u23:u16:in2:in)
Ignoring empty pin current: Ix(u23:u16:in2:out)
Ignoring empty pin current: Ix(u23:u16:in2:vdd)
Ignoring empty pin current: Ix(u23:u16:in2:vgnd)
Ignoring empty pin current: Ix(u23:u16:in3:in)
Ignoring empty pin current: Ix(u23:u16:in3:out)
Ignoring empty pin current: Ix(u23:u16:in3:vdd)
Ignoring empty pin current: Ix(u23:u16:in3:vgnd)
Ignoring empty pin current: Ix(u23:u16:in4:in)
Ignoring empty pin current: Ix(u23:u16:in4:out)
Ignoring empty pin current: Ix(u23:u16:in4:vdd)
Ignoring empty pin current: Ix(u23:u16:in4:vgnd)
Ignoring empty pin current: Ix(u23:u16:out1:in)
Ignoring empty pin current: Ix(u23:u16:out1:out)
Ignoring empty pin current: Ix(u23:u16:out1:vdd)
Ignoring empty pin current: Ix(u23:u16:out1:vgnd)
Ignoring empty pin current: Ix(u23:u16:out2:in)
Ignoring empty pin current: Ix(u23:u16:out2:out)
Ignoring empty pin current: Ix(u23:u16:out2:vdd)
Ignoring empty pin current: Ix(u23:u16:out2:vgnd)
Ignoring empty pin current: Ix(u23:u17:in1:in)
Ignoring empty pin current: Ix(u23:u17:in1:out)
Ignoring empty pin current: Ix(u23:u17:in1:vdd)
Ignoring empty pin current: Ix(u23:u17:in1:vgnd)
Ignoring empty pin current: Ix(u23:u17:out:in)
Ignoring empty pin current: Ix(u23:u17:out:out)
Ignoring empty pin current: Ix(u23:u17:out:vdd)
Ignoring empty pin current: Ix(u23:u17:out:vgnd)
Ignoring empty pin current: Ix(u23:u18:in1:in)
Ignoring empty pin current: Ix(u23:u18:in1:out)
Ignoring empty pin current: Ix(u23:u18:in1:vdd)
Ignoring empty pin current: Ix(u23:u18:in1:vgnd)
Ignoring empty pin current: Ix(u23:u18:out:in)
Ignoring empty pin current: Ix(u23:u18:out:out)
Ignoring empty pin current: Ix(u23:u18:out:vdd)
Ignoring empty pin current: Ix(u23:u18:out:vgnd)
Ignoring empty pin current: Ix(u23:u19:in1:in)
Ignoring empty pin current: Ix(u23:u19:in1:out)
Ignoring empty pin current: Ix(u23:u19:in1:vdd)
Ignoring empty pin current: Ix(u23:u19:in1:vgnd)
Ignoring empty pin current: Ix(u23:u19:out:in)
Ignoring empty pin current: Ix(u23:u19:out:out)
Ignoring empty pin current: Ix(u23:u19:out:vdd)
Ignoring empty pin current: Ix(u23:u19:out:vgnd)
Ignoring empty pin current: Ix(u23:u20:in1:in)
Ignoring empty pin current: Ix(u23:u20:in1:out)
Ignoring empty pin current: Ix(u23:u20:in1:vdd)
Ignoring empty pin current: Ix(u23:u20:in1:vgnd)
Ignoring empty pin current: Ix(u23:u20:out:in)
Ignoring empty pin current: Ix(u23:u20:out:out)
Ignoring empty pin current: Ix(u23:u20:out:vdd)
Ignoring empty pin current: Ix(u23:u20:out:vgnd)
Ignoring empty pin current: Ix(u23:u21:in1:in)
Ignoring empty pin current: Ix(u23:u21:in1:out)
Ignoring empty pin current: Ix(u23:u21:in1:vdd)
Ignoring empty pin current: Ix(u23:u21:in1:vgnd)
Ignoring empty pin current: Ix(u23:u21:in2:in)
Ignoring empty pin current: Ix(u23:u21:in2:out)
Ignoring empty pin current: Ix(u23:u21:in2:vdd)
Ignoring empty pin current: Ix(u23:u21:in2:vgnd)
Ignoring empty pin current: Ix(u23:u21:in3:in)
Ignoring empty pin current: Ix(u23:u21:in3:out)
Ignoring empty pin current: Ix(u23:u21:in3:vdd)
Ignoring empty pin current: Ix(u23:u21:in3:vgnd)
Ignoring empty pin current: Ix(u23:u21:in4:in)
Ignoring empty pin current: Ix(u23:u21:in4:out)
Ignoring empty pin current: Ix(u23:u21:in4:vdd)
Ignoring empty pin current: Ix(u23:u21:in4:vgnd)
Ignoring empty pin current: Ix(u23:u21:out1:in)
Ignoring empty pin current: Ix(u23:u21:out1:out)
Ignoring empty pin current: Ix(u23:u21:out1:vdd)
Ignoring empty pin current: Ix(u23:u21:out1:vgnd)
Ignoring empty pin current: Ix(u23:u21:out2:in)
Ignoring empty pin current: Ix(u23:u21:out2:out)
Ignoring empty pin current: Ix(u23:u21:out2:vdd)
Ignoring empty pin current: Ix(u23:u21:out2:vgnd)
Ignoring empty pin current: Ix(u23:u22:in1:in)
Ignoring empty pin current: Ix(u23:u22:in1:out)
Ignoring empty pin current: Ix(u23:u22:in1:vdd)
Ignoring empty pin current: Ix(u23:u22:in1:vgnd)
Ignoring empty pin current: Ix(u23:u22:out:in)
Ignoring empty pin current: Ix(u23:u22:out:out)
Ignoring empty pin current: Ix(u23:u22:out:vdd)
Ignoring empty pin current: Ix(u23:u22:out:vgnd)
Ignoring empty pin current: Ix(u23:u23:in1:in)
Ignoring empty pin current: Ix(u23:u23:in1:out)
Ignoring empty pin current: Ix(u23:u23:in1:vdd)
Ignoring empty pin current: Ix(u23:u23:in1:vgnd)
Ignoring empty pin current: Ix(u23:u23:in2:in)
Ignoring empty pin current: Ix(u23:u23:in2:out)
Ignoring empty pin current: Ix(u23:u23:in2:vdd)
Ignoring empty pin current: Ix(u23:u23:in2:vgnd)
Ignoring empty pin current: Ix(u23:u23:in3:in)
Ignoring empty pin current: Ix(u23:u23:in3:out)
Ignoring empty pin current: Ix(u23:u23:in3:vdd)
Ignoring empty pin current: Ix(u23:u23:in3:vgnd)
Ignoring empty pin current: Ix(u23:u23:in4:in)
Ignoring empty pin current: Ix(u23:u23:in4:out)
Ignoring empty pin current: Ix(u23:u23:in4:vdd)
Ignoring empty pin current: Ix(u23:u23:in4:vgnd)
Ignoring empty pin current: Ix(u23:u23:out1:in)
Ignoring empty pin current: Ix(u23:u23:out1:out)
Ignoring empty pin current: Ix(u23:u23:out1:vdd)
Ignoring empty pin current: Ix(u23:u23:out1:vgnd)
Ignoring empty pin current: Ix(u23:u23:out2:in)
Ignoring empty pin current: Ix(u23:u23:out2:out)
Ignoring empty pin current: Ix(u23:u23:out2:vdd)
Ignoring empty pin current: Ix(u23:u23:out2:vgnd)
Ignoring empty pin current: Ix(u23:u24:in1:in)
Ignoring empty pin current: Ix(u23:u24:in1:out)
Ignoring empty pin current: Ix(u23:u24:in1:vdd)
Ignoring empty pin current: Ix(u23:u24:in1:vgnd)
Ignoring empty pin current: Ix(u23:u24:out:in)
Ignoring empty pin current: Ix(u23:u24:out:out)
Ignoring empty pin current: Ix(u23:u24:out:vdd)
Ignoring empty pin current: Ix(u23:u24:out:vgnd)
Ignoring empty pin current: Ix(u23:u25:in1:in)
Ignoring empty pin current: Ix(u23:u25:in1:out)
Ignoring empty pin current: Ix(u23:u25:in1:vdd)
Ignoring empty pin current: Ix(u23:u25:in1:vgnd)
Ignoring empty pin current: Ix(u23:u25:in2:in)
Ignoring empty pin current: Ix(u23:u25:in2:out)
Ignoring empty pin current: Ix(u23:u25:in2:vdd)
Ignoring empty pin current: Ix(u23:u25:in2:vgnd)
Ignoring empty pin current: Ix(u23:u25:in3:in)
Ignoring empty pin current: Ix(u23:u25:in3:out)
Ignoring empty pin current: Ix(u23:u25:in3:vdd)
Ignoring empty pin current: Ix(u23:u25:in3:vgnd)
Ignoring empty pin current: Ix(u23:u25:in4:in)
Ignoring empty pin current: Ix(u23:u25:in4:out)
Ignoring empty pin current: Ix(u23:u25:in4:vdd)
Ignoring empty pin current: Ix(u23:u25:in4:vgnd)
Ignoring empty pin current: Ix(u23:u25:out1:in)
Ignoring empty pin current: Ix(u23:u25:out1:out)
Ignoring empty pin current: Ix(u23:u25:out1:vdd)
Ignoring empty pin current: Ix(u23:u25:out1:vgnd)
Ignoring empty pin current: Ix(u23:u25:out2:in)
Ignoring empty pin current: Ix(u23:u25:out2:out)
Ignoring empty pin current: Ix(u23:u25:out2:vdd)
Ignoring empty pin current: Ix(u23:u25:out2:vgnd)
Ignoring empty pin current: Ix(u23:u26:in1:in)
Ignoring empty pin current: Ix(u23:u26:in1:out)
Ignoring empty pin current: Ix(u23:u26:in1:vdd)
Ignoring empty pin current: Ix(u23:u26:in1:vgnd)
Ignoring empty pin current: Ix(u23:u26:out:in)
Ignoring empty pin current: Ix(u23:u26:out:out)
Ignoring empty pin current: Ix(u23:u26:out:vdd)
Ignoring empty pin current: Ix(u23:u26:out:vgnd)
Ignoring empty pin current: Ix(x1:out)
Ignoring empty pin current: Ix(u23:1)
Ignoring empty pin current: Ix(u23:2)
Ignoring empty pin current: Ix(u23:3)
Ignoring empty pin current: Ix(u23:4)
Ignoring empty pin current: Ix(u23:5)
Ignoring empty pin current: Ix(u23:6)
Ignoring empty pin current: Ix(u23:7)
Ignoring empty pin current: Ix(u23:8)
Ignoring empty pin current: Ix(u23:9)
Ignoring empty pin current: Ix(u23:10)
Ignoring empty pin current: Ix(u23:11)
Ignoring empty pin current: Ix(u23:12)
Ignoring empty pin current: Ix(u23:13)
Ignoring empty pin current: Ix(u23:14)
Ignoring empty pin current: Ix(u23:15)
Ignoring empty pin current: Ix(u23:16)
Ignoring empty pin current: Ix(u23:u2:a)
Ignoring empty pin current: Ix(u23:u2:y)
Ignoring empty pin current: Ix(u23:u2:vdd)
Ignoring empty pin current: Ix(u23:u2:vgnd)
Ignoring empty pin current: Ix(u23:u3:a)
Ignoring empty pin current: Ix(u23:u3:y)
Ignoring empty pin current: Ix(u23:u3:vdd)
Ignoring empty pin current: Ix(u23:u3:vgnd)
Ignoring empty pin current: Ix(u23:u4:s)
Ignoring empty pin current: Ix(u23:u4:c)
Ignoring empty pin current: Ix(u23:u4:d)
Ignoring empty pin current: Ix(u23:u4:r)
Ignoring empty pin current: Ix(u23:u4:q)
Ignoring empty pin current: Ix(u23:u4:qn)
Ignoring empty pin current: Ix(u23:u4:vdd)
Ignoring empty pin current: Ix(u23:u4:vgnd)
Ignoring empty pin current: Ix(u23:u5:a)
Ignoring empty pin current: Ix(u23:u5:y)
Ignoring empty pin current: Ix(u23:u5:vdd)
Ignoring empty pin current: Ix(u23:u5:vgnd)
Ignoring empty pin current: Ix(u23:u6:a)
Ignoring empty pin current: Ix(u23:u6:y)
Ignoring empty pin current: Ix(u23:u6:vdd)
Ignoring empty pin current: Ix(u23:u6:vgnd)
Ignoring empty pin current: Ix(u23:u7:a)
Ignoring empty pin current: Ix(u23:u7:y)
Ignoring empty pin current: Ix(u23:u7:vdd)
Ignoring empty pin current: Ix(u23:u7:vgnd)
Ignoring empty pin current: Ix(u23:u8:a)
Ignoring empty pin current: Ix(u23:u8:y)
Ignoring empty pin current: Ix(u23:u8:vdd)
Ignoring empty pin current: Ix(u23:u8:vgnd)
Ignoring empty pin current: Ix(u23:u9:s)
Ignoring empty pin current: Ix(u23:u9:c)
Ignoring empty pin current: Ix(u23:u9:d)
Ignoring empty pin current: Ix(u23:u9:r)
Ignoring empty pin current: Ix(u23:u9:q)
Ignoring empty pin current: Ix(u23:u9:qn)
Ignoring empty pin current: Ix(u23:u9:vdd)
Ignoring empty pin current: Ix(u23:u9:vgnd)
Ignoring empty pin current: Ix(u23:u10:a)
Ignoring empty pin current: Ix(u23:u10:y)
Ignoring empty pin current: Ix(u23:u10:vdd)
Ignoring empty pin current: Ix(u23:u10:vgnd)
Ignoring empty pin current: Ix(u23:u11:s)
Ignoring empty pin current: Ix(u23:u11:c)
Ignoring empty pin current: Ix(u23:u11:d)
Ignoring empty pin current: Ix(u23:u11:r)
Ignoring empty pin current: Ix(u23:u11:q)
Ignoring empty pin current: Ix(u23:u11:qn)
Ignoring empty pin current: Ix(u23:u11:vdd)
Ignoring empty pin current: Ix(u23:u11:vgnd)
Ignoring empty pin current: Ix(u23:u12:a)
Ignoring empty pin current: Ix(u23:u12:y)
Ignoring empty pin current: Ix(u23:u12:vdd)
Ignoring empty pin current: Ix(u23:u12:vgnd)
Ignoring empty pin current: Ix(u23:u13:s)
Ignoring empty pin current: Ix(u23:u13:c)
Ignoring empty pin current: Ix(u23:u13:d)
Ignoring empty pin current: Ix(u23:u13:r)
Ignoring empty pin current: Ix(u23:u13:q)
Ignoring empty pin current: Ix(u23:u13:qn)
Ignoring empty pin current: Ix(u23:u13:vdd)
Ignoring empty pin current: Ix(u23:u13:vgnd)
Ignoring empty pin current: Ix(u23:u14:a)
Ignoring empty pin current: Ix(u23:u14:y)
Ignoring empty pin current: Ix(u23:u14:vdd)
Ignoring empty pin current: Ix(u23:u14:vgnd)
Ignoring empty pin current: Ix(u23:u1:a)
Ignoring empty pin current: Ix(u23:u1:y)
Ignoring empty pin current: Ix(u23:u1:vdd)
Ignoring empty pin current: Ix(u23:u1:vgnd)
Ignoring empty pin current: Ix(u23:u15:a)
Ignoring empty pin current: Ix(u23:u15:y)
Ignoring empty pin current: Ix(u23:u15:vdd)
Ignoring empty pin current: Ix(u23:u15:vgnd)
Ignoring empty pin current: Ix(u23:u16:s)
Ignoring empty pin current: Ix(u23:u16:c)
Ignoring empty pin current: Ix(u23:u16:d)
Ignoring empty pin current: Ix(u23:u16:r)
Ignoring empty pin current: Ix(u23:u16:q)
Ignoring empty pin current: Ix(u23:u16:qn)
Ignoring empty pin current: Ix(u23:u16:vdd)
Ignoring empty pin current: Ix(u23:u16:vgnd)
Ignoring empty pin current: Ix(u23:u17:a)
Ignoring empty pin current: Ix(u23:u17:y)
Ignoring empty pin current: Ix(u23:u17:vdd)
Ignoring empty pin current: Ix(u23:u17:vgnd)
Ignoring empty pin current: Ix(u23:u18:a)
Ignoring empty pin current: Ix(u23:u18:y)
Ignoring empty pin current: Ix(u23:u18:vdd)
Ignoring empty pin current: Ix(u23:u18:vgnd)
Ignoring empty pin current: Ix(u23:u19:a)
Ignoring empty pin current: Ix(u23:u19:y)
Ignoring empty pin current: Ix(u23:u19:vdd)
Ignoring empty pin current: Ix(u23:u19:vgnd)
Ignoring empty pin current: Ix(u23:u20:a)
Ignoring empty pin current: Ix(u23:u20:y)
Ignoring empty pin current: Ix(u23:u20:vdd)
Ignoring empty pin current: Ix(u23:u20:vgnd)
Ignoring empty pin current: Ix(u23:u21:s)
Ignoring empty pin current: Ix(u23:u21:c)
Ignoring empty pin current: Ix(u23:u21:d)
Ignoring empty pin current: Ix(u23:u21:r)
Ignoring empty pin current: Ix(u23:u21:q)
Ignoring empty pin current: Ix(u23:u21:qn)
Ignoring empty pin current: Ix(u23:u21:vdd)
Ignoring empty pin current: Ix(u23:u21:vgnd)
Ignoring empty pin current: Ix(u23:u22:a)
Ignoring empty pin current: Ix(u23:u22:y)
Ignoring empty pin current: Ix(u23:u22:vdd)
Ignoring empty pin current: Ix(u23:u22:vgnd)
Ignoring empty pin current: Ix(u23:u23:s)
Ignoring empty pin current: Ix(u23:u23:c)
Ignoring empty pin current: Ix(u23:u23:d)
Ignoring empty pin current: Ix(u23:u23:r)
Ignoring empty pin current: Ix(u23:u23:q)
Ignoring empty pin current: Ix(u23:u23:qn)
Ignoring empty pin current: Ix(u23:u23:vdd)
Ignoring empty pin current: Ix(u23:u23:vgnd)
Ignoring empty pin current: Ix(u23:u24:a)
Ignoring empty pin current: Ix(u23:u24:y)
Ignoring empty pin current: Ix(u23:u24:vdd)
Ignoring empty pin current: Ix(u23:u24:vgnd)
Ignoring empty pin current: Ix(u23:u25:s)
Ignoring empty pin current: Ix(u23:u25:c)
Ignoring empty pin current: Ix(u23:u25:d)
Ignoring empty pin current: Ix(u23:u25:r)
Ignoring empty pin current: Ix(u23:u25:q)
Ignoring empty pin current: Ix(u23:u25:qn)
Ignoring empty pin current: Ix(u23:u25:vdd)
Ignoring empty pin current: Ix(u23:u25:vgnd)
Ignoring empty pin current: Ix(u23:u26:a)
Ignoring empty pin current: Ix(u23:u26:y)
Ignoring empty pin current: Ix(u23:u26:vdd)
Ignoring empty pin current: Ix(u23:u26:vgnd)
Ignoring empty pin current: Ix(u23:u2:in1:in)
Ignoring empty pin current: Ix(u23:u2:in1:out)
Ignoring empty pin current: Ix(u23:u2:in1:vdd)
Ignoring empty pin current: Ix(u23:u2:in1:vgnd)
Ignoring empty pin current: Ix(u23:u2:out:in)
Ignoring empty pin current: Ix(u23:u2:out:out)
Ignoring empty pin current: Ix(u23:u2:out:vdd)
Ignoring empty pin current: Ix(u23:u2:out:vgnd)
Ignoring empty pin current: Ix(u23:u3:in1:in)
Ignoring empty pin current: Ix(u23:u3:in1:out)
Ignoring empty pin current: Ix(u23:u3:in1:vdd)
Ignoring empty pin current: Ix(u23:u3:in1:vgnd)
Ignoring empty pin current: Ix(u23:u3:out:in)
Ignoring empty pin current: Ix(u23:u3:out:out)
Ignoring empty pin current: Ix(u23:u3:out:vdd)
Ignoring empty pin current: Ix(u23:u3:out:vgnd)
Ignoring empty pin current: Ix(u23:u4:in1:in)
Ignoring empty pin current: Ix(u23:u4:in1:out)
Ignoring empty pin current: Ix(u23:u4:in1:vdd)
Ignoring empty pin current: Ix(u23:u4:in1:vgnd)
Ignoring empty pin current: Ix(u23:u4:in2:in)
Ignoring empty pin current: Ix(u23:u4:in2:out)
Ignoring empty pin current: Ix(u23:u4:in2:vdd)
Ignoring empty pin current: Ix(u23:u4:in2:vgnd)
Ignoring empty pin current: Ix(u23:u4:in3:in)
Ignoring empty pin current: Ix(u23:u4:in3:out)
Ignoring empty pin current: Ix(u23:u4:in3:vdd)
Ignoring empty pin current: Ix(u23:u4:in3:vgnd)
Ignoring empty pin current: Ix(u23:u4:in4:in)
Ignoring empty pin current: Ix(u23:u4:in4:out)
Ignoring empty pin current: Ix(u23:u4:in4:vdd)
Ignoring empty pin current: Ix(u23:u4:in4:vgnd)
Ignoring empty pin current: Ix(u23:u4:out1:in)
Ignoring empty pin current: Ix(u23:u4:out1:out)
Ignoring empty pin current: Ix(u23:u4:out1:vdd)
Ignoring empty pin current: Ix(u23:u4:out1:vgnd)
Ignoring empty pin current: Ix(u23:u4:out2:in)
Ignoring empty pin current: Ix(u23:u4:out2:out)
Ignoring empty pin current: Ix(u23:u4:out2:vdd)
Ignoring empty pin current: Ix(u23:u4:out2:vgnd)
Ignoring empty pin current: Ix(u23:u5:in1:in)
Ignoring empty pin current: Ix(u23:u5:in1:out)
Ignoring empty pin current: Ix(u23:u5:in1:vdd)
Ignoring empty pin current: Ix(u23:u5:in1:vgnd)
Ignoring empty pin current: Ix(u23:u5:out:in)
Ignoring empty pin current: Ix(u23:u5:out:out)
Ignoring empty pin current: Ix(u23:u5:out:vdd)
Ignoring empty pin current: Ix(u23:u5:out:vgnd)
Ignoring empty pin current: Ix(u23:u6:in1:in)
Ignoring empty pin current: Ix(u23:u6:in1:out)
Ignoring empty pin current: Ix(u23:u6:in1:vdd)
Ignoring empty pin current: Ix(u23:u6:in1:vgnd)
Ignoring empty pin current: Ix(u23:u6:out:in)
Ignoring empty pin current: Ix(u23:u6:out:out)
Ignoring empty pin current: Ix(u23:u6:out:vdd)
Ignoring empty pin current: Ix(u23:u6:out:vgnd)
Ignoring empty pin current: Ix(u23:u7:in1:in)
Ignoring empty pin current: Ix(u23:u7:in1:out)
Ignoring empty pin current: Ix(u23:u7:in1:vdd)
Ignoring empty pin current: Ix(u23:u7:in1:vgnd)
Ignoring empty pin current: Ix(u23:u7:out:in)
Ignoring empty pin current: Ix(u23:u7:out:out)
Ignoring empty pin current: Ix(u23:u7:out:vdd)
Ignoring empty pin current: Ix(u23:u7:out:vgnd)
Ignoring empty pin current: Ix(u23:u8:in1:in)
Ignoring empty pin current: Ix(u23:u8:in1:out)
Ignoring empty pin current: Ix(u23:u8:in1:vdd)
Ignoring empty pin current: Ix(u23:u8:in1:vgnd)
Ignoring empty pin current: Ix(u23:u8:out:in)
Ignoring empty pin current: Ix(u23:u8:out:out)
Ignoring empty pin current: Ix(u23:u8:out:vdd)
Ignoring empty pin current: Ix(u23:u8:out:vgnd)
Ignoring empty pin current: Ix(u23:u9:in1:in)
Ignoring empty pin current: Ix(u23:u9:in1:out)
Ignoring empty pin current: Ix(u23:u9:in1:vdd)
Ignoring empty pin current: Ix(u23:u9:in1:vgnd)
Ignoring empty pin current: Ix(u23:u9:in2:in)
Ignoring empty pin current: Ix(u23:u9:in2:out)
Ignoring empty pin current: Ix(u23:u9:in2:vdd)
Ignoring empty pin current: Ix(u23:u9:in2:vgnd)
Ignoring empty pin current: Ix(u23:u9:in3:in)
Ignoring empty pin current: Ix(u23:u9:in3:out)
Ignoring empty pin current: Ix(u23:u9:in3:vdd)
Ignoring empty pin current: Ix(u23:u9:in3:vgnd)
Ignoring empty pin current: Ix(u23:u9:in4:in)
Ignoring empty pin current: Ix(u23:u9:in4:out)
Ignoring empty pin current: Ix(u23:u9:in4:vdd)
Ignoring empty pin current: Ix(u23:u9:in4:vgnd)
Ignoring empty pin current: Ix(u23:u9:out1:in)
Ignoring empty pin current: Ix(u23:u9:out1:out)
Ignoring empty pin current: Ix(u23:u9:out1:vdd)
Ignoring empty pin current: Ix(u23:u9:out1:vgnd)
Ignoring empty pin current: Ix(u23:u9:out2:in)
Ignoring empty pin current: Ix(u23:u9:out2:out)
Ignoring empty pin current: Ix(u23:u9:out2:vdd)
Ignoring empty pin current: Ix(u23:u9:out2:vgnd)
Ignoring empty pin current: Ix(u23:u10:in1:in)
Ignoring empty pin current: Ix(u23:u10:in1:out)
Ignoring empty pin current: Ix(u23:u10:in1:vdd)
Ignoring empty pin current: Ix(u23:u10:in1:vgnd)
Ignoring empty pin current: Ix(u23:u10:out:in)
Ignoring empty pin current: Ix(u23:u10:out:out)
Ignoring empty pin current: Ix(u23:u10:out:vdd)
Ignoring empty pin current: Ix(u23:u10:out:vgnd)
Ignoring empty pin current: Ix(u23:u11:in1:in)
Ignoring empty pin current: Ix(u23:u11:in1:out)
Ignoring empty pin current: Ix(u23:u11:in1:vdd)
Ignoring empty pin current: Ix(u23:u11:in1:vgnd)
Ignoring empty pin current: Ix(u23:u11:in2:in)
Ignoring empty pin current: Ix(u23:u11:in2:out)
Ignoring empty pin current: Ix(u23:u11:in2:vdd)
Ignoring empty pin current: Ix(u23:u11:in2:vgnd)
Ignoring empty pin current: Ix(u23:u11:in3:in)
Ignoring empty pin current: Ix(u23:u11:in3:out)
Ignoring empty pin current: Ix(u23:u11:in3:vdd)
Ignoring empty pin current: Ix(u23:u11:in3:vgnd)
Ignoring empty pin current: Ix(u23:u11:in4:in)
Ignoring empty pin current: Ix(u23:u11:in4:out)
Ignoring empty pin current: Ix(u23:u11:in4:vdd)
Ignoring empty pin current: Ix(u23:u11:in4:vgnd)
Ignoring empty pin current: Ix(u23:u11:out1:in)
Ignoring empty pin current: Ix(u23:u11:out1:out)
Ignoring empty pin current: Ix(u23:u11:out1:vdd)
Ignoring empty pin current: Ix(u23:u11:out1:vgnd)
Ignoring empty pin current: Ix(u23:u11:out2:in)
Ignoring empty pin current: Ix(u23:u11:out2:out)
Ignoring empty pin current: Ix(u23:u11:out2:vdd)
Ignoring empty pin current: Ix(u23:u11:out2:vgnd)
Ignoring empty pin current: Ix(u23:u12:in1:in)
Ignoring empty pin current: Ix(u23:u12:in1:out)
Ignoring empty pin current: Ix(u23:u12:in1:vdd)
Ignoring empty pin current: Ix(u23:u12:in1:vgnd)
Ignoring empty pin current: Ix(u23:u12:out:in)
Ignoring empty pin current: Ix(u23:u12:out:out)
Ignoring empty pin current: Ix(u23:u12:out:vdd)
Ignoring empty pin current: Ix(u23:u12:out:vgnd)
Ignoring empty pin current: Ix(u23:u13:in1:in)
Ignoring empty pin current: Ix(u23:u13:in1:out)
Ignoring empty pin current: Ix(u23:u13:in1:vdd)
Ignoring empty pin current: Ix(u23:u13:in1:vgnd)
Ignoring empty pin current: Ix(u23:u13:in2:in)
Ignoring empty pin current: Ix(u23:u13:in2:out)
Ignoring empty pin current: Ix(u23:u13:in2:vdd)
Ignoring empty pin current: Ix(u23:u13:in2:vgnd)
Ignoring empty pin current: Ix(u23:u13:in3:in)
Ignoring empty pin current: Ix(u23:u13:in3:out)
Ignoring empty pin current: Ix(u23:u13:in3:vdd)
Ignoring empty pin current: Ix(u23:u13:in3:vgnd)
Ignoring empty pin current: Ix(u23:u13:in4:in)
Ignoring empty pin current: Ix(u23:u13:in4:out)
Ignoring empty pin current: Ix(u23:u13:in4:vdd)
Ignoring empty pin current: Ix(u23:u13:in4:vgnd)
Ignoring empty pin current: Ix(u23:u13:out1:in)
Ignoring empty pin current: Ix(u23:u13:out1:out)
Ignoring empty pin current: Ix(u23:u13:out1:vdd)
Ignoring empty pin current: Ix(u23:u13:out1:vgnd)
Ignoring empty pin current: Ix(u23:u13:out2:in)
Ignoring empty pin current: Ix(u23:u13:out2:out)
Ignoring empty pin current: Ix(u23:u13:out2:vdd)
Ignoring empty pin current: Ix(u23:u13:out2:vgnd)
Ignoring empty pin current: Ix(u23:u14:in1:in)
Ignoring empty pin current: Ix(u23:u14:in1:out)
Ignoring empty pin current: Ix(u23:u14:in1:vdd)
Ignoring empty pin current: Ix(u23:u14:in1:vgnd)
Ignoring empty pin current: Ix(u23:u14:out:in)
Ignoring empty pin current: Ix(u23:u14:out:out)
Ignoring empty pin current: Ix(u23:u14:out:vdd)
Ignoring empty pin current: Ix(u23:u14:out:vgnd)
Ignoring empty pin current: Ix(u23:u1:in1:in)
Ignoring empty pin current: Ix(u23:u1:in1:out)
Ignoring empty pin current: Ix(u23:u1:in1:vdd)
Ignoring empty pin current: Ix(u23:u1:in1:vgnd)
Ignoring empty pin current: Ix(u23:u1:out:in)
Ignoring empty pin current: Ix(u23:u1:out:out)
Ignoring empty pin current: Ix(u23:u1:out:vdd)
Ignoring empty pin current: Ix(u23:u1:out:vgnd)
Ignoring empty pin current: Ix(u23:u15:in1:in)
Ignoring empty pin current: Ix(u23:u15:in1:out)
Ignoring empty pin current: Ix(u23:u15:in1:vdd)
Ignoring empty pin current: Ix(u23:u15:in1:vgnd)
Ignoring empty pin current: Ix(u23:u15:out:in)
Ignoring empty pin current: Ix(u23:u15:out:out)
Ignoring empty pin current: Ix(u23:u15:out:vdd)
Ignoring empty pin current: Ix(u23:u15:out:vgnd)
Ignoring empty pin current: Ix(u23:u16:in1:in)
Ignoring empty pin current: Ix(u23:u16:in1:out)
Ignoring empty pin current: Ix(u23:u16:in1:vdd)
Ignoring empty pin current: Ix(u23:u16:in1:vgnd)
Ignoring empty pin current: Ix(u23:u16:in2:in)
Ignoring empty pin current: Ix(u23:u16:in2:out)
Ignoring empty pin current: Ix(u23:u16:in2:vdd)
Ignoring empty pin current: Ix(u23:u16:in2:vgnd)
Ignoring empty pin current: Ix(u23:u16:in3:in)
Ignoring empty pin current: Ix(u23:u16:in3:out)
Ignoring empty pin current: Ix(u23:u16:in3:vdd)
Ignoring empty pin current: Ix(u23:u16:in3:vgnd)
Ignoring empty pin current: Ix(u23:u16:in4:in)
Ignoring empty pin current: Ix(u23:u16:in4:out)
Ignoring empty pin current: Ix(u23:u16:in4:vdd)
Ignoring empty pin current: Ix(u23:u16:in4:vgnd)
Ignoring empty pin current: Ix(u23:u16:out1:in)
Ignoring empty pin current: Ix(u23:u16:out1:out)
Ignoring empty pin current: Ix(u23:u16:out1:vdd)
Ignoring empty pin current: Ix(u23:u16:out1:vgnd)
Ignoring empty pin current: Ix(u23:u16:out2:in)
Ignoring empty pin current: Ix(u23:u16:out2:out)
Ignoring empty pin current: Ix(u23:u16:out2:vdd)
Ignoring empty pin current: Ix(u23:u16:out2:vgnd)
Ignoring empty pin current: Ix(u23:u17:in1:in)
Ignoring empty pin current: Ix(u23:u17:in1:out)
Ignoring empty pin current: Ix(u23:u17:in1:vdd)
Ignoring empty pin current: Ix(u23:u17:in1:vgnd)
Ignoring empty pin current: Ix(u23:u17:out:in)
Ignoring empty pin current: Ix(u23:u17:out:out)
Ignoring empty pin current: Ix(u23:u17:out:vdd)
Ignoring empty pin current: Ix(u23:u17:out:vgnd)
Ignoring empty pin current: Ix(u23:u18:in1:in)
Ignoring empty pin current: Ix(u23:u18:in1:out)
Ignoring empty pin current: Ix(u23:u18:in1:vdd)
Ignoring empty pin current: Ix(u23:u18:in1:vgnd)
Ignoring empty pin current: Ix(u23:u18:out:in)
Ignoring empty pin current: Ix(u23:u18:out:out)
Ignoring empty pin current: Ix(u23:u18:out:vdd)
Ignoring empty pin current: Ix(u23:u18:out:vgnd)
Ignoring empty pin current: Ix(u23:u19:in1:in)
Ignoring empty pin current: Ix(u23:u19:in1:out)
Ignoring empty pin current: Ix(u23:u19:in1:vdd)
Ignoring empty pin current: Ix(u23:u19:in1:vgnd)
Ignoring empty pin current: Ix(u23:u19:out:in)
Ignoring empty pin current: Ix(u23:u19:out:out)
Ignoring empty pin current: Ix(u23:u19:out:vdd)
Ignoring empty pin current: Ix(u23:u19:out:vgnd)
Ignoring empty pin current: Ix(u23:u20:in1:in)
Ignoring empty pin current: Ix(u23:u20:in1:out)
Ignoring empty pin current: Ix(u23:u20:in1:vdd)
Ignoring empty pin current: Ix(u23:u20:in1:vgnd)
Ignoring empty pin current: Ix(u23:u20:out:in)
Ignoring empty pin current: Ix(u23:u20:out:out)
Ignoring empty pin current: Ix(u23:u20:out:vdd)
Ignoring empty pin current: Ix(u23:u20:out:vgnd)
Ignoring empty pin current: Ix(u23:u21:in1:in)
Ignoring empty pin current: Ix(u23:u21:in1:out)
Ignoring empty pin current: Ix(u23:u21:in1:vdd)
Ignoring empty pin current: Ix(u23:u21:in1:vgnd)
Ignoring empty pin current: Ix(u23:u21:in2:in)
Ignoring empty pin current: Ix(u23:u21:in2:out)
Ignoring empty pin current: Ix(u23:u21:in2:vdd)
Ignoring empty pin current: Ix(u23:u21:in2:vgnd)
Ignoring empty pin current: Ix(u23:u21:in3:in)
Ignoring empty pin current: Ix(u23:u21:in3:out)
Ignoring empty pin current: Ix(u23:u21:in3:vdd)
Ignoring empty pin current: Ix(u23:u21:in3:vgnd)
Ignoring empty pin current: Ix(u23:u21:in4:in)
Ignoring empty pin current: Ix(u23:u21:in4:out)
Ignoring empty pin current: Ix(u23:u21:in4:vdd)
Ignoring empty pin current: Ix(u23:u21:in4:vgnd)
Ignoring empty pin current: Ix(u23:u21:out1:in)
Ignoring empty pin current: Ix(u23:u21:out1:out)
Ignoring empty pin current: Ix(u23:u21:out1:vdd)
Ignoring empty pin current: Ix(u23:u21:out1:vgnd)
Ignoring empty pin current: Ix(u23:u21:out2:in)
Ignoring empty pin current: Ix(u23:u21:out2:out)
Ignoring empty pin current: Ix(u23:u21:out2:vdd)
Ignoring empty pin current: Ix(u23:u21:out2:vgnd)
Ignoring empty pin current: Ix(u23:u22:in1:in)
Ignoring empty pin current: Ix(u23:u22:in1:out)
Ignoring empty pin current: Ix(u23:u22:in1:vdd)
Ignoring empty pin current: Ix(u23:u22:in1:vgnd)
Ignoring empty pin current: Ix(u23:u22:out:in)
Ignoring empty pin current: Ix(u23:u22:out:out)
Ignoring empty pin current: Ix(u23:u22:out:vdd)
Ignoring empty pin current: Ix(u23:u22:out:vgnd)
Ignoring empty pin current: Ix(u23:u23:in1:in)
Ignoring empty pin current: Ix(u23:u23:in1:out)
Ignoring empty pin current: Ix(u23:u23:in1:vdd)
Ignoring empty pin current: Ix(u23:u23:in1:vgnd)
Ignoring empty pin current: Ix(u23:u23:in2:in)
Ignoring empty pin current: Ix(u23:u23:in2:out)
Ignoring empty pin current: Ix(u23:u23:in2:vdd)
Ignoring empty pin current: Ix(u23:u23:in2:vgnd)
Ignoring empty pin current: Ix(u23:u23:in3:in)
Ignoring empty pin current: Ix(u23:u23:in3:out)
Ignoring empty pin current: Ix(u23:u23:in3:vdd)
Ignoring empty pin current: Ix(u23:u23:in3:vgnd)
Ignoring empty pin current: Ix(u23:u23:in4:in)
Ignoring empty pin current: Ix(u23:u23:in4:out)
Ignoring empty pin current: Ix(u23:u23:in4:vdd)
Ignoring empty pin current: Ix(u23:u23:in4:vgnd)
Ignoring empty pin current: Ix(u23:u23:out1:in)
Ignoring empty pin current: Ix(u23:u23:out1:out)
Ignoring empty pin current: Ix(u23:u23:out1:vdd)
Ignoring empty pin current: Ix(u23:u23:out1:vgnd)
Ignoring empty pin current: Ix(u23:u23:out2:in)
Ignoring empty pin current: Ix(u23:u23:out2:out)
Ignoring empty pin current: Ix(u23:u23:out2:vdd)
Ignoring empty pin current: Ix(u23:u23:out2:vgnd)
Ignoring empty pin current: Ix(u23:u24:in1:in)
Ignoring empty pin current: Ix(u23:u24:in1:out)
Ignoring empty pin current: Ix(u23:u24:in1:vdd)
Ignoring empty pin current: Ix(u23:u24:in1:vgnd)
Ignoring empty pin current: Ix(u23:u24:out:in)
Ignoring empty pin current: Ix(u23:u24:out:out)
Ignoring empty pin current: Ix(u23:u24:out:vdd)
Ignoring empty pin current: Ix(u23:u24:out:vgnd)
Ignoring empty pin current: Ix(u23:u25:in1:in)
Ignoring empty pin current: Ix(u23:u25:in1:out)
Ignoring empty pin current: Ix(u23:u25:in1:vdd)
Ignoring empty pin current: Ix(u23:u25:in1:vgnd)
Ignoring empty pin current: Ix(u23:u25:in2:in)
Ignoring empty pin current: Ix(u23:u25:in2:out)
Ignoring empty pin current: Ix(u23:u25:in2:vdd)
Ignoring empty pin current: Ix(u23:u25:in2:vgnd)
Ignoring empty pin current: Ix(u23:u25:in3:in)
Ignoring empty pin current: Ix(u23:u25:in3:out)
Ignoring empty pin current: Ix(u23:u25:in3:vdd)
Ignoring empty pin current: Ix(u23:u25:in3:vgnd)
Ignoring empty pin current: Ix(u23:u25:in4:in)
Ignoring empty pin current: Ix(u23:u25:in4:out)
Ignoring empty pin current: Ix(u23:u25:in4:vdd)
Ignoring empty pin current: Ix(u23:u25:in4:vgnd)
Ignoring empty pin current: Ix(u23:u25:out1:in)
Ignoring empty pin current: Ix(u23:u25:out1:out)
Ignoring empty pin current: Ix(u23:u25:out1:vdd)
Ignoring empty pin current: Ix(u23:u25:out1:vgnd)
Ignoring empty pin current: Ix(u23:u25:out2:in)
Ignoring empty pin current: Ix(u23:u25:out2:out)
Ignoring empty pin current: Ix(u23:u25:out2:vdd)
Ignoring empty pin current: Ix(u23:u25:out2:vgnd)
Ignoring empty pin current: Ix(u23:u26:in1:in)
Ignoring empty pin current: Ix(u23:u26:in1:out)
Ignoring empty pin current: Ix(u23:u26:in1:vdd)
Ignoring empty pin current: Ix(u23:u26:in1:vgnd)
Ignoring empty pin current: Ix(u23:u26:out:in)
Ignoring empty pin current: Ix(u23:u26:out:out)
Ignoring empty pin current: Ix(u23:u26:out:vdd)
Ignoring empty pin current: Ix(u23:u26:out:vgnd)
Ignoring empty pin current: Ix(x1:out)

Date: Sat Feb 07 01:31:21 2015
Total elapsed time: 7.705 seconds.

tnom = 27
temp = 27
method = modified trap
totiter = 47378
traniter = 47361
tranpoints = 22813
accept = 18901
rejected = 3912
matrix size = 424
fillins = 17
solver = Normal
Thread vector: 37.4/16.8[7] 19.1/7.3[7] 14.8/6.5[7] 1.6/1.9[1]  2592/500
Matrix Compiler1: 10.9 KB object code size  6.0/2.9/[1.9]
Matrix Compiler2: 21.7 KB object code size  4.3/5.8/[2.8]


