Circuit: * Z:\home\mainster\CODES_local\LTSpice_projects\digitals\ungewollte_zyklen_aufbrechen.asc

WARNING: Less than two connections to node NC_01.  This node is used by A:U1:1.
WARNING: Less than two connections to node NC_02.  This node is used by A:U4:1.
WARNING: Less than two connections to node NC_03.  This node is used by A:U2:1.
WARNING: Less than two connections to node T1_NS.  This node is used by V2.
WARNING: Less than two connections to node T0_NS.  This node is used by V3.
WARNING: Less than two connections to node NC_04.  This node is used by A:U3:1.
WARNING: Less than two connections to node NC_05.  This node is used by A:U5:1.
WARNING: Less than two connections to node NC_06.  This node is used by A:U6:1.
WARNING: Less than two connections to node NC_07.  This node is used by A:U13:1.
WARNING: Less than two connections to node NC_08.  This node is used by A:U14:1.
WARNING: Less than two connections to node NC_09.  This node is used by A:U19:1.
WARNING: Less than two connections to node NC_10.  This node is used by A:U19:1.
WARNING: Less than two connections to node NC_11.  This node is used by A:U29:1.
WARNING: Less than two connections to node NC_12.  This node is used by A:U29:1.
WARNING: Less than two connections to node NC_13.  This node is used by A:U32:1.
WARNING: Less than two connections to node NC_14.  This node is used by A:U32:1.
Direct Newton iteration for .op point succeeded.
Ignoring empty pin current: Ix(u4:i2)
Ignoring empty pin current: Ix(u4:i3)
Ignoring empty pin current: Ix(u7:in)
Ignoring empty pin current: Ix(u6:i2)
Ignoring empty pin current: Ix(u6:i3)
Ignoring empty pin current: Ix(u16:in)
Ignoring empty pin current: Ix(u17:in)
Ignoring empty pin current: Ix(u18:in)
Ignoring empty pin current: Ix(u30:in)
Ignoring empty pin current: Ix(u31:in)
Ignoring empty pin current: Ix(u4:i2)
Ignoring empty pin current: Ix(u4:i3)
Ignoring empty pin current: Ix(u7:in)
Ignoring empty pin current: Ix(u6:i2)
Ignoring empty pin current: Ix(u6:i3)
Ignoring empty pin current: Ix(u16:in)
Ignoring empty pin current: Ix(u17:in)
Ignoring empty pin current: Ix(u18:in)
Ignoring empty pin current: Ix(u30:in)
Ignoring empty pin current: Ix(u31:in)


Measurement "t1_ns" FAIL'ed

Measurement "t0_ns" FAIL'ed


Date: Thu Jul 16 16:44:40 2015
Total elapsed time: 0.448 seconds.

tnom = 27
temp = 27
method = modified trap
totiter = 8059
traniter = 8054
tranpoints = 3923
accept = 3492
rejected = 431
matrix size = 85
fillins = 0
solver = Normal
Thread vector: 5.9/4.6[2] 1.5/1.5[1] 1.4/1.5[1] 0.4/1.0[1]  2592/500
Matrix Compiler1: 1.66 KB object code size  1.3/0.8/[0.7]
Matrix Compiler2: 3.87 KB object code size  1.2/1.7/[0.6]


