Circuit: * Z:\home\mainster\CODES_local\LTSpice_projects\digitals\WS1314.asc

WARNING: Less than two connections to node NC_03.  This node is used by A:U7:19.
WARNING: Less than two connections to node NC_04.  This node is used by A:R1:1.
WARNING: Less than two connections to node NC_05.  This node is used by A:R0:1.
WARNING: Less than two connections to node NC_06.  This node is used by A:U6:1.
WARNING: Less than two connections to node NC_07.  This node is used by A:U16:1.
WARNING: Less than two connections to node NC_08.  This node is used by A:U19:1.
WARNING: Less than two connections to node NC_09.  This node is used by A:U20:1.
WARNING: Less than two connections to node +5V.  This node is used by V:U5:1.
Direct Newton iteration for .op point succeeded.
Ignoring empty pin current: Ix(u7:clk)
Ignoring empty pin current: Ix(u7:clr)
Ignoring empty pin current: Ix(u7:pre)
Ignoring empty pin current: Ix(r1:clk)
Ignoring empty pin current: Ix(r0:clk)
Ignoring empty pin current: Ix(u16:i2)
Ignoring empty pin current: Ix(u16:i3)
Ignoring empty pin current: Ix(u19:i3)
Ignoring empty pin current: Ix(u20:i3)
Ignoring empty pin current: Ix(inv1:in)
Ignoring empty pin current: Ix(u1:in)
Ignoring empty pin current: Ix(u2:in)
Ignoring empty pin current: Ix(u8:in)
Ignoring empty pin current: Ix(u7:clk)
Ignoring empty pin current: Ix(u7:clr)
Ignoring empty pin current: Ix(u7:pre)
Ignoring empty pin current: Ix(r1:clk)
Ignoring empty pin current: Ix(r0:clk)
Ignoring empty pin current: Ix(u16:i2)
Ignoring empty pin current: Ix(u16:i3)
Ignoring empty pin current: Ix(u19:i3)
Ignoring empty pin current: Ix(u20:i3)
Ignoring empty pin current: Ix(inv1:in)
Ignoring empty pin current: Ix(u1:in)
Ignoring empty pin current: Ix(u2:in)
Ignoring empty pin current: Ix(u8:in)

Date: Mon Feb 09 00:39:15 2015
Total elapsed time: 1.624 seconds.

tnom = 27
temp = 27
method = modified trap
totiter = 67913
traniter = 67908
tranpoints = 33946
accept = 26411
rejected = 7535
matrix size = 62
fillins = 0
solver = Normal
Thread vector: 5.1/3.6[2] 1.2/1.3[1] 1.1/1.4[1] 0.3/0.9[1]  2592/500
Matrix Compiler1: 1.15 KB object code size  0.8/0.5/[0.4]
Matrix Compiler2: 2.82 KB object code size  0.7/1.0/[0.4]


