Circuit: * Z:\home\koblitz\Simulationsbeispiele_SS15\EAS\mult-2q-einfach.asc

.step i1=1e-005
.step i1=2e-005
.step i1=3e-005
.step i1=4e-005
.step i1=5e-005
.step i1=6e-005
.step i1=7e-005
.step i1=8e-005
.step i1=9e-005
.step i1=0.0001

Date: Wed May 06 11:15:56 2015
Total elapsed time: 0.736 seconds.

tnom = 27
temp = 27
method = trap
totiter = 1011
traniter = 0
tranpoints = 0
accept = 0
rejected = 0
matrix size = 7
fillins = 0
solver = Normal
Matrix Compiler1: off  [1.2]/1.6/1.5
Matrix Compiler2: off  [1.4]/1.6/2.7


