Circuit: * Z:\home\koblitz\Simulationsbeispiele_SS15\EAS\pwm.asc

WARNING: Less than two connections to node N002.  This node is used by V1.
Direct Newton iteration for .op point succeeded.
Ignoring empty pin current: Ix(u1:1)
Ignoring empty pin current: Ix(u1:2)
Ignoring empty pin current: Ix(u1:1)
Ignoring empty pin current: Ix(u1:2)

Date: Wed Apr 22 10:56:55 2015
Total elapsed time: 1.736 seconds.

tnom = 27
temp = 27
method = modified trap
totiter = 91293
traniter = 91276
tranpoints = 34320
accept = 23231
rejected = 11089
matrix size = 14
fillins = 1
solver = Normal
Matrix Compiler1: 370 Bytes object code size  3.2/2.1/[1.9]
Matrix Compiler2: off  [2.0]/2.4/2.6


