Circuit: * Z:\home\koblitz\Simulationsbeispiele_SS15\EAS\SR_nyquist-1.asc


Date: Mon May 04 11:30:02 2015
Total elapsed time: 0.130 seconds.

tnom = 27
temp = 27
method = trap
totiter = 0
traniter = 0
tranpoints = 0
accept = 0
rejected = 0
matrix size = 38
fillins = 57
solver = Normal

