Circuit: * Z:\home\mainster\CODES_local\LTSpice_projects\steffi\bundle_tia_v2\TIA_fet_LTC6252_10M_ACversuch_saubere_netzliste_v2.1.asc

In2: both pins shorted together -- ignoring.
WARNING: Less than two connections to node OFFS_IDE.  This node is used by V3.
WARNING: Less than two connections to node U_F2--.  This node is used by B:X1:1.
Instance "m:u2:6": Length shorter than recommended for a level 2 MOSFET.
Instance "m:u2:5": Length shorter than recommended for a level 2 MOSFET.
Instance "m:u2:4": Length shorter than recommended for a level 2 MOSFET.
Instance "m:u2:3": Length shorter than recommended for a level 2 MOSFET.
Instance "m:u2:2": Length shorter than recommended for a level 2 MOSFET.
Instance "m:u2:1": Length shorter than recommended for a level 2 MOSFET.
Instance "m:u3:6": Length shorter than recommended for a level 2 MOSFET.
Instance "m:u3:5": Length shorter than recommended for a level 2 MOSFET.
Instance "m:u3:4": Length shorter than recommended for a level 2 MOSFET.
Instance "m:u3:3": Length shorter than recommended for a level 2 MOSFET.
Instance "m:u3:2": Length shorter than recommended for a level 2 MOSFET.
Instance "m:u3:1": Length shorter than recommended for a level 2 MOSFET.
Direct Newton iteration failed to find .op point.  (Use ".option noopiter" to skip.)
Starting Gmin stepping
Gmin = 10
Gmin = 1.07374
Gmin = 0.115292
Gmin = 0.0123794
Gmin = 0.00132923
vernier = 0.5
vernier = 0.25
vernier = 0.125
vernier = 0.0625
Gmin = 0.00100083
vernier = 0.03125
vernier = 0.015625
vernier = 0.0078125
vernier = 0.00390625
vernier = 0.00195313
Gmin = 0.00100083
vernier = 0.000976563
vernier = 0.000488281
Gmin = 0
Gmin stepping failed

Starting source stepping with srcstepmethod=0
Source Step = 3.0303%
Source Step = 21.2595%
vernier = 0.00390625
Source Step = 21.2388%
Source Step = 21.2683%
Source Step = 21.2979%
Source Step = 21.3275%
Source Step = 21.3571%
vernier = 0.00146484
Source Step = 21.3926%
Source Step = 21.437%
Source Step = 21.4814%
Source Step = 21.5258%
Source Step = 21.5702%
vernier = 0.00219727
Source Step = 21.6212%
Source Step = 21.6878%
Source Step = 21.7544%
Source Step = 21.821%
Source Step = 21.8876%
vernier = 0.0032959
Source Step = 21.9608%
Source Step = 22.0607%
Source Step = 22.1606%
Source Step = 22.2604%
Source Step = 22.3603%
vernier = 0.00494385
Source Step = 22.4652%
Source Step = 22.615%
Source Step = 22.7648%
Source Step = 22.9146%
Source Step = 23.0644%
Source Step = 23.2143%
vernier = 0.00741577
Source Step = 23.439%
Source Step = 23.6637%
Source Step = 23.8884%
Source Step = 24.1131%
Source Step = 24.3379%
vernier = 0.0111237
Source Step = 24.6637%
Source Step = 25.0008%
Source Step = 25.3379%
Source Step = 25.6749%
Source Step = 26.012%
vernier = 0.0166855
Source Step = 26.4839%
Source Step = 26.9896%
Source Step = 27.4952%
Source Step = 28.0008%
Source Step = 28.5064%
vernier = 0.0250282
Source Step = 29.189%
Source Step = 29.9474%
Source Step = 30.7059%
Source Step = 31.4643%
Source Step = 32.2227%
vernier = 0.0375423
Source Step = 33.2087%
Source Step = 34.3463%
Source Step = 35.484%
Source Step = 36.6216%
Source Step = 37.7593%
vernier = 0.0563135
Source Step = 39.1813%
Source Step = 40.8878%
Source Step = 42.5943%
Source Step = 44.3008%
Source Step = 46.0072%
vernier = 0.0844703
Source Step = 48.055%
Source Step = 50.6147%
Source Step = 53.1744%
Source Step = 55.7341%
Source Step = 58.2938%
vernier = 0.126705
Source Step = 61.2375%
Source Step = 65.077%
Source Step = 68.9166%
Source Step = 72.7561%
Source Step = 76.5957%
vernier = 0.190058
Source Step = 80.8192%
Source Step = 86.5786%
Source Step = 92.3379%
Source Step = 97.0893%
vernier = 0.0118786
Source Step = 97.0263%
Source Step = 97.1163%
Source Step = 97.2063%
Source Step = 97.2963%
Source Step = 97.3863%
Source Step = 97.4763%
Source Step = 97.5663%
Source Step = 97.6563%
Source Step = 97.7463%
Source Step = 97.8363%
Source Step = 97.9262%
Source Step = 98.0162%
Source Step = 98.1062%
Source Step = 98.1962%
Source Step = 98.2862%
Source Step = 98.3762%
Source Step = 98.4662%
Source Step = 98.5562%
Source Step = 98.6462%
vernier = 0.00445449
Source Step = 98.7721%
Source Step = 98.9071%
Source Step = 99.0421%
Source Step = 99.1771%
Source Step = 99.3121%
vernier = 0.00668173
Source Step = 99.4943%
Source Step = 99.6968%
Source Step = 99.8993%
Source stepping succeeded in finding the operating point.

Ignoring empty pin current: Ix(x1:sig_in)
Ignoring empty pin current: Ix(x1:sig_in)

Date: Thu Jan 22 08:17:26 2015
Total elapsed time: 3.938 seconds.

tnom = 27
temp = 27
method = trap
totiter = 16564
traniter = 0
tranpoints = 0
accept = 0
rejected = 0
matrix size = 139
fillins = 269
solver = Normal
Matrix Compiler1:    1600 opcodes
Matrix Compiler2: 16.3 KB object code size  4.9/5.3/[1.9]


