Circuit: * Z:\home\mainster\CODES_local\LTSpice_projects\ortkurve_back\ortskurve_parallelschwingkreis.asc

.OP point found by inspection.
.step freq=1000
.step freq=1006.96
.step freq=1013.96
.step freq=1021.01
.step freq=1028.11
.step freq=1035.26
.step freq=1042.47
.step freq=1049.72
.step freq=1057.02
.step freq=1064.37
.step freq=1071.77
.step freq=1079.23
.step freq=1086.73
.step freq=1094.29
.step freq=1101.91
.step freq=1109.57
.step freq=1117.29
.step freq=1125.06
.step freq=1132.88
.step freq=1140.76
.step freq=1148.7
.step freq=1156.69
.step freq=1164.73
.step freq=1172.83
.step freq=1180.99
.step freq=1189.21
.step freq=1197.48
.step freq=1205.81
.step freq=1214.19
.step freq=1222.64
.step freq=1231.14
.step freq=1239.71
.step freq=1248.33
.step freq=1257.01
.step freq=1265.76
.step freq=1274.56
.step freq=1283.43
.step freq=1292.35
.step freq=1301.34
.step freq=1310.39
.step freq=1319.51
.step freq=1328.69
.step freq=1337.93
.step freq=1347.23
.step freq=1356.6
.step freq=1366.04
.step freq=1375.54
.step freq=1385.11
.step freq=1394.74
.step freq=1404.44
.step freq=1414.21
.step freq=1424.05
.step freq=1433.96
.step freq=1443.93
.step freq=1453.97
.step freq=1464.09
.step freq=1474.27
.step freq=1484.52
.step freq=1494.85
.step freq=1505.25
.step freq=1515.72
.step freq=1526.26
.step freq=1536.88
.step freq=1547.56
.step freq=1558.33
.step freq=1569.17
.step freq=1580.08
.step freq=1591.07
.step freq=1602.14
.step freq=1613.28
.step freq=1624.5
.step freq=1635.8
.step freq=1647.18
.step freq=1658.64
.step freq=1670.18
.step freq=1681.79
.step freq=1693.49
.step freq=1705.27
.step freq=1717.13
.step freq=1729.07
.step freq=1741.1
.step freq=1753.21
.step freq=1765.41
.step freq=1777.69
.step freq=1790.05
.step freq=1802.5
.step freq=1815.04
.step freq=1827.66
.step freq=1840.38
.step freq=1853.18
.step freq=1866.07
.step freq=1879.05
.step freq=1892.12
.step freq=1905.28
.step freq=1918.53
.step freq=1931.87
.step freq=1945.31
.step freq=1958.84
.step freq=1972.47
.step freq=1986.18
.step freq=2000
.step freq=2013.91
.step freq=2027.92
.step freq=2042.02
.step freq=2056.23
.step freq=2070.53
.step freq=2084.93
.step freq=2099.43
.step freq=2114.04
.step freq=2128.74
.step freq=2143.55
.step freq=2158.46
.step freq=2173.47
.step freq=2188.59
.step freq=2203.81
.step freq=2219.14
.step freq=2234.57
.step freq=2250.12
.step freq=2265.77
.step freq=2281.53
.step freq=2297.4
.step freq=2313.38
.step freq=2329.47
.step freq=2345.67
.step freq=2361.99
.step freq=2378.41
.step freq=2394.96
.step freq=2411.62
.step freq=2428.39
.step freq=2445.28
.step freq=2462.29
.step freq=2479.42
.step freq=2496.66
.step freq=2514.03
.step freq=2531.51
.step freq=2549.12
.step freq=2566.85
.step freq=2584.71
.step freq=2602.68
.step freq=2620.79
.step freq=2639.02
.step freq=2657.37
.step freq=2675.86
.step freq=2694.47
.step freq=2713.21
.step freq=2732.08
.step freq=2751.08
.step freq=2770.22
.step freq=2789.49
.step freq=2808.89
.step freq=2828.43
.step freq=2848.1
.step freq=2867.91
.step freq=2887.86
.step freq=2907.95
.step freq=2928.17
.step freq=2948.54
.step freq=2969.05
.step freq=2989.7
.step freq=3010.49
.step freq=3031.43
.step freq=3052.52
.step freq=3073.75
.step freq=3095.13
.step freq=3116.66
.step freq=3138.34
.step freq=3160.17
.step freq=3182.15
.step freq=3204.28
.step freq=3226.57
.step freq=3249.01
.step freq=3271.61
.step freq=3294.36
.step freq=3317.28
.step freq=3340.35
.step freq=3363.59
.step freq=3386.98
.step freq=3410.54
.step freq=3434.26
.step freq=3458.15
.step freq=3482.2
.step freq=3506.42
.step freq=3530.81
.step freq=3555.37
.step freq=3580.1
.step freq=3605
.step freq=3630.08
.step freq=3655.33
.step freq=3680.75
.step freq=3706.35
.step freq=3732.13
.step freq=3758.09
.step freq=3784.23
.step freq=3810.55
.step freq=3837.06
.step freq=3863.75
.step freq=3890.62
.step freq=3917.68
.step freq=3944.93
.step freq=3972.37
.step freq=4000
.step freq=4027.82
.step freq=4055.84
.step freq=4084.05
.step freq=4112.46
.step freq=4141.06
.step freq=4169.86
.step freq=4198.87
.step freq=4228.07
.step freq=4257.48
.step freq=4287.09
.step freq=4316.91
.step freq=4346.94
.step freq=4377.17
.step freq=4407.62
.step freq=4438.28
.step freq=4469.15
.step freq=4500.23
.step freq=4531.54
.step freq=4563.05
.step freq=4594.79
.step freq=4626.75
.step freq=4658.93
.step freq=4691.34
.step freq=4723.97
.step freq=4756.83
.step freq=4789.91
.step freq=4823.23
.step freq=4856.78
.step freq=4890.56
.step freq=4924.58
.step freq=4958.83
.step freq=4993.32
.step freq=5028.05
.step freq=5063.03
.step freq=5098.24
.step freq=5133.7
.step freq=5169.41
.step freq=5205.37
.step freq=5241.57
.step freq=5278.03
.step freq=5314.74
.step freq=5351.71
.step freq=5388.93
.step freq=5426.42
.step freq=5464.16
.step freq=5502.17
.step freq=5540.44
.step freq=5578.97
.step freq=5617.78
.step freq=5656.85
.step freq=5696.2
.step freq=5735.82
.step freq=5775.72
.step freq=5815.89
.step freq=5856.34
.step freq=5897.08
.step freq=5938.09
.step freq=5979.4
.step freq=6020.99
.step freq=6062.87
.step freq=6105.04
.step freq=6147.5
.step freq=6190.26
.step freq=6233.32
.step freq=6276.67
.step freq=6320.33
.step freq=6364.29
.step freq=6408.56
.step freq=6453.13
.step freq=6498.02
.step freq=6543.22
.step freq=6588.73
.step freq=6634.56
.step freq=6680.7
.step freq=6727.17
.step freq=6773.96
.step freq=6821.08
.step freq=6868.52
.step freq=6916.3
.step freq=6964.4
.step freq=7012.85
.step freq=7061.62
.step freq=7110.74
.step freq=7160.2
.step freq=7210
.step freq=7260.15
.step freq=7310.65
.step freq=7361.5
.step freq=7412.7
.step freq=7464.26
.step freq=7516.18
.step freq=7568.46
.step freq=7621.1
.step freq=7674.11
.step freq=7727.49
.step freq=7781.24
.step freq=7835.36
.step freq=7889.86
.step freq=7944.74
.step freq=8000


Measurement: aavg
  step	AVG(v(a))	FROM	TO
     1	-4.2334e-008	0	0.01
     2	-3.39031e-008	0	0.00993092
     3	-3.36444e-008	0	0.00986233
     4	-3.33897e-008	0	0.0097942
     5	-3.31131e-008	0	0.00972655
     6	-3.28314e-008	0	0.00965936
     7	-3.3464e-008	0	0.00959264
     8	-3.31741e-008	0	0.00952638
     9	-3.28893e-008	0	0.00946058
    10	-3.26147e-008	0	0.00939523
    11	-3.23041e-008	0	0.00933033
    12	-3.20417e-008	0	0.00926588
    13	-3.09938e-008	0	0.00920188
    14	-3.07274e-008	0	0.00913831
    15	-7.9901e-009	0	0.00907519
    16	-6.88914e-008	0	0.0090125
    17	-4.48134e-008	0	0.00895025
    18	-4.99508e-008	0	0.00888843
    19	-3.44947e-008	0	0.00882703
    20	-4.44378e-008	0	0.00876606
    21	-2.18805e-008	0	0.00870551
    22	-2.12803e-008	0	0.00864537
    23	-2.10579e-008	0	0.00858565
    24	-3.8812e-008	0	0.00852635
    25	-5.53628e-008	0	0.00846745
    26	-3.93296e-008	0	0.00840896
    27	-3.9066e-008	0	0.00835088
    28	-3.88232e-008	0	0.0082932
    29	-3.8559e-008	0	0.00823591
    30	-3.82974e-008	0	0.00817902
    31	-1.97017e-008	0	0.00812252
    32	-3.739e-008	0	0.00806642
    33	-3.71461e-008	0	0.0080107
    34	-3.68897e-008	0	0.00795536
    35	-2.13525e-008	0	0.00790041
    36	-2.05822e-008	0	0.00784584
    37	-2.01367e-008	0	0.00779165
    38	-3.5679e-008	0	0.00773782
    39	-3.54255e-008	0	0.00768438
    40	-3.51522e-008	0	0.0076313
    41	-3.48826e-008	0	0.00757858
    42	-1.99626e-008	0	0.00752623
    43	-1.97006e-008	0	0.00747425
    44	-5.14036e-008	0	0.00742262
    45	-5.11368e-008	0	0.00737135
    46	-5.08563e-008	0	0.00732043
    47	-5.05626e-008	0	0.00726986
    48	-5.05043e-008	0	0.00721965
    49	-5.07696e-008	0	0.00716978
    50	-5.04756e-008	0	0.00712025
    51	-5.01807e-008	0	0.00707107
    52	-4.98957e-008	0	0.00702222
    53	-3.23409e-008	0	0.00697372
    54	-4.99896e-008	0	0.00692555
    55	-3.39238e-008	0	0.00687771
    56	-3.35947e-008	0	0.0068302
    57	-3.3284e-008	0	0.00678302
    58	-4.92413e-008	0	0.00673617
    59	-4.94789e-008	0	0.00668964
    60	-4.91554e-008	0	0.00664343
    61	-4.96705e-008	0	0.00659754
    62	-4.93352e-008	0	0.00655197
    63	-3.07999e-008	0	0.00650671
    64	-4.75481e-008	0	0.00646176
    65	-4.71776e-008	0	0.00641713
    66	-4.68388e-008	0	0.0063728
    67	-4.67933e-008	0	0.00632878
    68	-4.69741e-008	0	0.00628507
    69	-6.47785e-008	0	0.00624165
    70	-6.44149e-008	0	0.00619854
    71	-6.45766e-008	0	0.00615572
    72	-6.40608e-008	0	0.0061132
    73	-6.5093e-008	0	0.00607097
    74	-6.5204e-008	0	0.00602904
    75	-4.83535e-008	0	0.00598739
    76	-2.95425e-008	0	0.00594604
    77	-1.15954e-008	0	0.00590496
    78	6.81125e-009	0	0.00586417
    79	7.27931e-009	0	0.00582367
    80	-8.93731e-009	0	0.00578344
    81	-2.65063e-008	0	0.00574349
    82	-8.93452e-009	0	0.00570382
    83	-8.41702e-009	0	0.00566442
    84	-8.38093e-009	0	0.00562529
    85	-2.65423e-008	0	0.00558644
    86	-2.60029e-008	0	0.00554785
    87	-2.74801e-008	0	0.00550953
    88	-2.72165e-008	0	0.00547147
    89	-2.66174e-008	0	0.00543367
    90	-2.60218e-008	0	0.00539614
    91	-2.79707e-008	0	0.00535887
    92	-4.51804e-008	0	0.00532185
    93	-7.83768e-008	0	0.00528509
    94	-7.7729e-008	0	0.00524858
    95	-5.97594e-008	0	0.00521233
    96	-5.91019e-008	0	0.00517632
    97	-5.84454e-008	0	0.00514057
    98	-5.77835e-008	0	0.00510506
    99	-5.77109e-008	0	0.0050698
   100	-3.9178e-008	0	0.00503478
   101	-3.84823e-008	0	0.005
   102	-5.54247e-008	0	0.00496546
   103	-4.04457e-008	0	0.00493116
   104	-3.66666e-008	0	0.0048971
   105	-1.8672e-008	0	0.00486327
   106	-1.79493e-008	0	0.00482968
   107	-1.71991e-008	0	0.00479632
   108	-1.64299e-008	0	0.00476319
   109	-3.37544e-008	0	0.00473029
   110	-3.30151e-008	0	0.00469761
   111	-4.95041e-008	0	0.00466516
   112	-3.59708e-008	0	0.00463294
   113	-4.83981e-008	0	0.00460094
   114	-1.35098e-008	0	0.00456916
   115	-1.22386e-008	0	0.0045376
   116	1.14547e-008	0	0.00450625
   117	-2.93746e-008	0	0.00447513
   118	-1.7865e-008	0	0.00444421
   119	-3.9753e-008	0	0.00441351
   120	-2.94404e-008	0	0.00438303
   121	-3.81456e-008	0	0.00435275
   122	-3.67085e-008	0	0.00432269
   123	-3.60742e-008	0	0.00429283
   124	-3.67775e-008	0	0.00426317
   125	-3.6105e-008	0	0.00423373
   126	-1.73543e-008	0	0.00420448
   127	-1.82334e-008	0	0.00417544
   128	-1.75388e-008	0	0.0041466
   129	-1.7719e-008	0	0.00411796
   130	-1.70043e-008	0	0.00408951
   131	1.16597e-009	0	0.00406126
   132	-1.77081e-008	0	0.00403321
   133	-2.70077e-008	0	0.00400535
   134	-2.70874e-008	0	0.00397768
   135	-4.52249e-008	0	0.00395021
   136	-4.70075e-008	0	0.00392292
   137	-4.68517e-008	0	0.00389582
   138	-6.419e-008	0	0.00386891
   139	-6.18015e-008	0	0.00384219
   140	-6.09408e-008	0	0.00381565
   141	-6.13954e-008	0	0.00378929
   142	-4.2165e-008	0	0.00376312
   143	-2.33365e-008	0	0.00373712
   144	-2.24588e-008	0	0.00371131
   145	-2.23035e-008	0	0.00368567
   146	-4.17097e-009	0	0.00366021
   147	1.43199e-008	0	0.00363493
   148	1.52794e-008	0	0.00360982
   149	1.54835e-008	0	0.00358489
   150	1.64612e-008	0	0.00356013
   151	1.74172e-008	0	0.00353553
   152	1.19457e-010	0	0.00351111
   153	-1.74062e-008	0	0.00348686
   154	-1.71599e-008	0	0.00346277
   155	-3.45627e-008	0	0.00343885
   156	-3.35329e-008	0	0.0034151
   157	-5.14974e-008	0	0.00339151
   158	-5.11107e-008	0	0.00336808
   159	-5.0799e-008	0	0.00334482
   160	-3.37519e-008	0	0.00332171
   161	-1.46829e-008	0	0.00329877
   162	-1.50172e-008	0	0.00327598
   163	3.50176e-009	0	0.00325335
   164	3.46604e-009	0	0.00323088
   165	-1.50149e-008	0	0.00320856
   166	-1.59564e-008	0	0.0031864
   167	-3.25076e-008	0	0.00316439
   168	-4.98789e-008	0	0.00314253
   169	-4.92538e-008	0	0.00312083
   170	-4.78578e-008	0	0.00309927
   171	-2.87726e-008	0	0.00307786
   172	-2.86135e-008	0	0.0030566
   173	-2.78469e-008	0	0.00303549
   174	-3.53985e-008	0	0.00301452
   175	-1.67801e-008	0	0.0029937
   176	-1.52864e-008	0	0.00297302
   177	-1.51964e-008	0	0.00295248
   178	-1.36507e-008	0	0.00293209
   179	-1.38351e-008	0	0.00291183
   180	-1.29801e-008	0	0.00289172
   181	-3.01527e-008	0	0.00287175
   182	-2.9232e-008	0	0.00285191
   183	-2.83155e-008	0	0.00283221
   184	-1.10136e-008	0	0.00281265
   185	-1.07142e-008	0	0.00279322
   186	-1.08497e-008	0	0.00277392
   187	-2.752e-008	0	0.00275476
   188	-2.6062e-008	0	0.00273573
   189	-4.38194e-008	0	0.00271684
   190	-4.18052e-008	0	0.00269807
   191	-2.90921e-008	0	0.00267943
   192	-3.95413e-008	0	0.00266093
   193	-4.76382e-008	0	0.00264255
   194	-3.66789e-008	0	0.00262429
   195	-1.24827e-008	0	0.00260616
   196	-2.52274e-008	0	0.00258816
   197	-2.44719e-008	0	0.00257028
   198	-2.37328e-008	0	0.00255253
   199	-1.90565e-008	0	0.0025349
   200	-1.18828e-008	0	0.00251739
   201	-2.31489e-008	0	0.0025
   202	-3.68201e-008	0	0.00248273
   203	-2.14546e-008	0	0.00246558
   204	-4.61564e-008	0	0.00244855
   205	-3.3754e-008	0	0.00243164
   206	-1.90264e-008	0	0.00241484
   207	-1.70483e-008	0	0.00239816
   208	-1.93742e-008	0	0.00238159
   209	-4.10803e-008	0	0.00236514
   210	-1.4905e-008	0	0.00234881
   211	-3.79539e-008	0	0.00233258
   212	-2.11414e-008	0	0.00231647
   213	-6.57075e-008	0	0.00230047
   214	-6.6668e-008	0	0.00228458
   215	-1.25691e-007	0	0.0022688
   216	-8.75821e-008	0	0.00225313
   217	-9.80264e-008	0	0.00223756
   218	-1.31127e-007	0	0.00222211
   219	-1.11974e-007	0	0.00220676
   220	-1.48997e-007	0	0.00219151
   221	-1.42502e-007	0	0.00217638
   222	-1.48566e-007	0	0.00216134
   223	-1.48231e-007	0	0.00214641
   224	-1.58709e-007	0	0.00213159
   225	-1.8938e-007	0	0.00211686
   226	-2.02574e-007	0	0.00210224
   227	-2.05974e-007	0	0.00208772
   228	-1.91497e-007	0	0.0020733
   229	-2.34945e-007	0	0.00205898
   230	-2.45402e-007	0	0.00204476
   231	-2.71294e-007	0	0.00203063
   232	-2.66895e-007	0	0.0020166
   233	-2.77319e-007	0	0.00200267
   234	-3.0507e-007	0	0.00198884
   235	-3.00337e-007	0	0.0019751
   236	-3.04628e-007	0	0.00196146
   237	-3.03762e-007	0	0.00194791
   238	-3.36447e-007	0	0.00193446
   239	-3.4934e-007	0	0.00192109
   240	-3.87345e-007	0	0.00190782
   241	-4.25889e-007	0	0.00189465
   242	-4.10793e-007	0	0.00188156
   243	-4.09595e-007	0	0.00186856
   244	-3.84628e-007	0	0.00185565
   245	-3.58902e-007	0	0.00184284
   246	-3.11882e-007	0	0.00183011
   247	-2.6758e-007	0	0.00181747
   248	-2.24264e-007	0	0.00180491
   249	-1.75913e-007	0	0.00179244
   250	-1.93031e-007	0	0.00178006
   251	-2.25949e-007	0	0.00176777
   252	-3.00914e-007	0	0.00175556
   253	-3.34362e-007	0	0.00174343
   254	-3.81405e-007	0	0.00173139
   255	-4.20861e-007	0	0.00171943
   256	-4.18124e-007	0	0.00170755
   257	-4.71044e-007	0	0.00169576
   258	-4.92135e-007	0	0.00168404
   259	-4.90467e-007	0	0.00167241
   260	-5.32467e-007	0	0.00166086
   261	-5.05458e-007	0	0.00164938
   262	-5.04314e-007	0	0.00163799
   263	-5.22717e-007	0	0.00162668
   264	-5.18614e-007	0	0.00161544
   265	-5.28312e-007	0	0.00160428
   266	-4.91308e-007	0	0.0015932
   267	-4.95676e-007	0	0.0015822
   268	-4.98664e-007	0	0.00157127
   269	-4.60489e-007	0	0.00156041
   270	-4.80187e-007	0	0.00154963
   271	-4.74136e-007	0	0.00153893
   272	-4.677e-007	0	0.0015283
   273	-4.76345e-007	0	0.00151774
   274	-4.20764e-007	0	0.00150726
   275	-4.69932e-007	0	0.00149685
   276	-4.64875e-007	0	0.00148651
   277	-4.79513e-007	0	0.00147624
   278	-4.82578e-007	0	0.00146604
   279	-4.89439e-007	0	0.00145592
   280	-4.5568e-007	0	0.00144586
   281	-4.66234e-007	0	0.00143587
   282	-4.24166e-007	0	0.00142595
   283	-4.49199e-007	0	0.0014161
   284	-4.42302e-007	0	0.00140632
   285	-4.40271e-007	0	0.00139661
   286	-4.1064e-007	0	0.00138696
   287	-4.2471e-007	0	0.00137738
   288	-4.12562e-007	0	0.00136787
   289	-4.12941e-007	0	0.00135842
   290	-4.10066e-007	0	0.00134904
   291	-3.89891e-007	0	0.00133972
   292	-4.12765e-007	0	0.00133046
   293	-4.26834e-007	0	0.00132127
   294	-3.88023e-007	0	0.00131215
   295	-3.90085e-007	0	0.00130308
   296	-3.82987e-007	0	0.00129408
   297	-3.84561e-007	0	0.00128514
   298	-4.02514e-007	0	0.00127627
   299	-3.82787e-007	0	0.00126745
   300	-3.95241e-007	0	0.00125869
   301	-3.78931e-007	0	0.00125

Measurement: bavg
  step	AVG(v(b))	FROM	TO
     1	3.02309e-005	0	0.01
     2	3.0251e-005	0	0.00993092
     3	3.02703e-005	0	0.00986233
     4	3.02894e-005	0	0.0097942
     5	3.03081e-005	0	0.00972655
     6	3.03267e-005	0	0.00965936
     7	3.03448e-005	0	0.00959264
     8	3.03629e-005	0	0.00952638
     9	3.03808e-005	0	0.00946058
    10	3.03984e-005	0	0.00939523
    11	3.04158e-005	0	0.00933033
    12	3.0433e-005	0	0.00926588
    13	3.04497e-005	0	0.00920188
    14	3.04665e-005	0	0.00913831
    15	3.04833e-005	0	0.00907519
    16	3.04994e-005	0	0.0090125
    17	3.05155e-005	0	0.00895025
    18	3.05311e-005	0	0.00888843
    19	3.05475e-005	0	0.00882703
    20	3.05625e-005	0	0.00876606
    21	3.05778e-005	0	0.00870551
    22	3.05929e-005	0	0.00864537
    23	3.06079e-005	0	0.00858565
    24	3.06226e-005	0	0.00852635
    25	3.06371e-005	0	0.00846745
    26	3.06513e-005	0	0.00840896
    27	3.06655e-005	0	0.00835088
    28	3.06795e-005	0	0.0082932
    29	3.06933e-005	0	0.00823591
    30	3.07069e-005	0	0.00817902
    31	3.07206e-005	0	0.00812252
    32	3.0734e-005	0	0.00806642
    33	3.07471e-005	0	0.0080107
    34	3.076e-005	0	0.00795536
    35	3.07726e-005	0	0.00790041
    36	3.07852e-005	0	0.00784584
    37	3.07977e-005	0	0.00779165
    38	3.08099e-005	0	0.00773782
    39	3.08221e-005	0	0.00768438
    40	3.0834e-005	0	0.0076313
    41	3.08458e-005	0	0.00757858
    42	3.08572e-005	0	0.00752623
    43	3.08687e-005	0	0.00747425
    44	3.08797e-005	0	0.00742262
    45	3.08909e-005	0	0.00737135
    46	3.09019e-005	0	0.00732043
    47	3.09128e-005	0	0.00726986
    48	3.09235e-005	0	0.00721965
    49	3.09337e-005	0	0.00716978
    50	3.09442e-005	0	0.00712025
    51	3.09545e-005	0	0.00707107
    52	3.09646e-005	0	0.00702222
    53	3.09745e-005	0	0.00697372
    54	3.09843e-005	0	0.00692555
    55	3.09938e-005	0	0.00687771
    56	3.10034e-005	0	0.0068302
    57	3.10129e-005	0	0.00678302
    58	3.10222e-005	0	0.00673617
    59	3.10311e-005	0	0.00668964
    60	3.10402e-005	0	0.00664343
    61	3.10487e-005	0	0.00659754
    62	3.10575e-005	0	0.00655197
    63	3.10663e-005	0	0.00650671
    64	3.10742e-005	0	0.00646176
    65	3.10826e-005	0	0.00641713
    66	3.10909e-005	0	0.0063728
    67	3.1099e-005	0	0.00632878
    68	3.11067e-005	0	0.00628507
    69	3.11146e-005	0	0.00624165
    70	3.11224e-005	0	0.00619854
    71	3.11296e-005	0	0.00615572
    72	3.11372e-005	0	0.0061132
    73	3.11447e-005	0	0.00607097
    74	3.11516e-005	0	0.00602904
    75	3.11586e-005	0	0.00598739
    76	3.11657e-005	0	0.00594604
    77	3.11722e-005	0	0.00590496
    78	3.1179e-005	0	0.00586417
    79	3.11857e-005	0	0.00582367
    80	3.11916e-005	0	0.00578344
    81	3.1198e-005	0	0.00574349
    82	3.12039e-005	0	0.00570382
    83	3.12101e-005	0	0.00566442
    84	3.12158e-005	0	0.00562529
    85	3.12214e-005	0	0.00558644
    86	3.12272e-005	0	0.00554785
    87	3.12322e-005	0	0.00550953
    88	3.1237e-005	0	0.00547147
    89	3.12425e-005	0	0.00543367
    90	3.12479e-005	0	0.00539614
    91	3.1253e-005	0	0.00535887
    92	3.12581e-005	0	0.00532185
    93	3.12628e-005	0	0.00528509
    94	3.12677e-005	0	0.00524858
    95	3.12724e-005	0	0.00521233
    96	3.1277e-005	0	0.00517632
    97	3.12815e-005	0	0.00514057
    98	3.12858e-005	0	0.00510506
    99	3.12901e-005	0	0.0050698
   100	3.12942e-005	0	0.00503478
   101	3.12981e-005	0	0.005
   102	3.1302e-005	0	0.00496546
   103	3.13055e-005	0	0.00493116
   104	3.13088e-005	0	0.0048971
   105	3.13122e-005	0	0.00486327
   106	3.13155e-005	0	0.00482968
   107	3.13187e-005	0	0.00479632
   108	3.13217e-005	0	0.00476319
   109	3.13246e-005	0	0.00473029
   110	3.13273e-005	0	0.00469761
   111	3.13299e-005	0	0.00466516
   112	3.13322e-005	0	0.00463294
   113	3.13345e-005	0	0.00460094
   114	3.13365e-005	0	0.00456916
   115	3.13385e-005	0	0.0045376
   116	3.13402e-005	0	0.00450625
   117	3.1342e-005	0	0.00447513
   118	3.13433e-005	0	0.00444421
   119	3.13449e-005	0	0.00441351
   120	3.13458e-005	0	0.00438303
   121	3.13467e-005	0	0.00435275
   122	3.13476e-005	0	0.00432269
   123	3.13483e-005	0	0.00429283
   124	3.13486e-005	0	0.00426317
   125	3.1349e-005	0	0.00423373
   126	3.13492e-005	0	0.00420448
   127	3.13489e-005	0	0.00417544
   128	3.13487e-005	0	0.0041466
   129	3.13482e-005	0	0.00411796
   130	3.13477e-005	0	0.00408951
   131	3.13468e-005	0	0.00406126
   132	3.13456e-005	0	0.00403321
   133	3.13443e-005	0	0.00400535
   134	3.13428e-005	0	0.00397768
   135	3.13411e-005	0	0.00395021
   136	3.13387e-005	0	0.00392292
   137	3.13367e-005	0	0.00389582
   138	3.13347e-005	0	0.00386891
   139	3.13326e-005	0	0.00384219
   140	3.13301e-005	0	0.00381565
   141	3.13272e-005	0	0.00378929
   142	3.13243e-005	0	0.00376312
   143	3.13212e-005	0	0.00373712
   144	3.13179e-005	0	0.00371131
   145	3.13141e-005	0	0.00368567
   146	3.13103e-005	0	0.00366021
   147	3.13062e-005	0	0.00363493
   148	3.13019e-005	0	0.00360982
   149	3.12972e-005	0	0.00358489
   150	3.12925e-005	0	0.00356013
   151	3.12875e-005	0	0.00353553
   152	3.12821e-005	0	0.00351111
   153	3.12766e-005	0	0.00348686
   154	3.12706e-005	0	0.00346277
   155	3.12645e-005	0	0.00343885
   156	3.12582e-005	0	0.0034151
   157	3.12515e-005	0	0.00339151
   158	3.12445e-005	0	0.00336808
   159	3.12372e-005	0	0.00334482
   160	3.12296e-005	0	0.00332171
   161	3.12219e-005	0	0.00329877
   162	3.12137e-005	0	0.00327598
   163	3.12052e-005	0	0.00325335
   164	3.11965e-005	0	0.00323088
   165	3.11873e-005	0	0.00320856
   166	3.11777e-005	0	0.0031864
   167	3.11682e-005	0	0.00316439
   168	3.11584e-005	0	0.00314253
   169	3.11482e-005	0	0.00312083
   170	3.11379e-005	0	0.00309927
   171	3.11271e-005	0	0.00307786
   172	3.1116e-005	0	0.0030566
   173	3.11045e-005	0	0.00303549
   174	3.10929e-005	0	0.00301452
   175	3.10807e-005	0	0.0029937
   176	3.10684e-005	0	0.00297302
   177	3.10555e-005	0	0.00295248
   178	3.10424e-005	0	0.00293209
   179	3.10288e-005	0	0.00291183
   180	3.10149e-005	0	0.00289172
   181	3.10008e-005	0	0.00287175
   182	3.09862e-005	0	0.00285191
   183	3.09712e-005	0	0.00283221
   184	3.09557e-005	0	0.00281265
   185	3.09399e-005	0	0.00279322
   186	3.09236e-005	0	0.00277392
   187	3.09072e-005	0	0.00275476
   188	3.08904e-005	0	0.00273573
   189	3.08732e-005	0	0.00271684
   190	3.08557e-005	0	0.00269807
   191	3.08378e-005	0	0.00267943
   192	3.08194e-005	0	0.00266093
   193	3.08007e-005	0	0.00264255
   194	3.07816e-005	0	0.00262429
   195	3.07621e-005	0	0.00260616
   196	3.07422e-005	0	0.00258816
   197	3.07218e-005	0	0.00257028
   198	3.07009e-005	0	0.00255253
   199	3.06796e-005	0	0.0025349
   200	3.06576e-005	0	0.00251739
   201	3.06357e-005	0	0.0025
   202	3.06132e-005	0	0.00248273
   203	3.05903e-005	0	0.00246558
   204	3.05671e-005	0	0.00244855
   205	3.05434e-005	0	0.00243164
   206	3.05192e-005	0	0.00241484
   207	3.04946e-005	0	0.00239816
   208	3.04695e-005	0	0.00238159
   209	3.04441e-005	0	0.00236514
   210	3.0418e-005	0	0.00234881
   211	3.03914e-005	0	0.00233258
   212	3.03646e-005	0	0.00231647
   213	3.03374e-005	0	0.00230047
   214	3.03097e-005	0	0.00228458
   215	3.02816e-005	0	0.0022688
   216	3.02529e-005	0	0.00225313
   217	3.02239e-005	0	0.00223756
   218	3.01943e-005	0	0.00222211
   219	3.0164e-005	0	0.00220676
   220	3.01337e-005	0	0.00219151
   221	3.01028e-005	0	0.00217638
   222	3.00715e-005	0	0.00216134
   223	3.00397e-005	0	0.00214641
   224	3.00073e-005	0	0.00213159
   225	2.99745e-005	0	0.00211686
   226	2.99411e-005	0	0.00210224
   227	2.99075e-005	0	0.00208772
   228	2.98733e-005	0	0.0020733
   229	2.98387e-005	0	0.00205898
   230	2.98036e-005	0	0.00204476
   231	2.97679e-005	0	0.00203063
   232	2.97319e-005	0	0.0020166
   233	2.96954e-005	0	0.00200267
   234	2.96585e-005	0	0.00198884
   235	2.9621e-005	0	0.0019751
   236	2.95831e-005	0	0.00196146
   237	2.95447e-005	0	0.00194791
   238	2.95058e-005	0	0.00193446
   239	2.94664e-005	0	0.00192109
   240	2.94266e-005	0	0.00190782
   241	2.93863e-005	0	0.00189465
   242	2.93455e-005	0	0.00188156
   243	2.93041e-005	0	0.00186856
   244	2.92624e-005	0	0.00185565
   245	2.922e-005	0	0.00184284
   246	2.91773e-005	0	0.00183011
   247	2.91339e-005	0	0.00181747
   248	2.90901e-005	0	0.00180491
   249	2.90458e-005	0	0.00179244
   250	2.9001e-005	0	0.00178006
   251	2.89557e-005	0	0.00176777
   252	2.89099e-005	0	0.00175556
   253	2.88636e-005	0	0.00174343
   254	2.88168e-005	0	0.00173139
   255	2.87694e-005	0	0.00171943
   256	2.87217e-005	0	0.00170755
   257	2.86733e-005	0	0.00169576
   258	2.86246e-005	0	0.00168404
   259	2.85753e-005	0	0.00167241
   260	2.85256e-005	0	0.00166086
   261	2.84754e-005	0	0.00164938
   262	2.84247e-005	0	0.00163799
   263	2.83734e-005	0	0.00162668
   264	2.83217e-005	0	0.00161544
   265	2.82697e-005	0	0.00160428
   266	2.8217e-005	0	0.0015932
   267	2.8164e-005	0	0.0015822
   268	2.81104e-005	0	0.00157127
   269	2.80565e-005	0	0.00156041
   270	2.80019e-005	0	0.00154963
   271	2.7947e-005	0	0.00153893
   272	2.78917e-005	0	0.0015283
   273	2.78359e-005	0	0.00151774
   274	2.77796e-005	0	0.00150726
   275	2.77228e-005	0	0.00149685
   276	2.76656e-005	0	0.00148651
   277	2.76081e-005	0	0.00147624
   278	2.75501e-005	0	0.00146604
   279	2.74917e-005	0	0.00145592
   280	2.74327e-005	0	0.00144586
   281	2.73735e-005	0	0.00143587
   282	2.73137e-005	0	0.00142595
   283	2.72536e-005	0	0.0014161
   284	2.71931e-005	0	0.00140632
   285	2.71323e-005	0	0.00139661
   286	2.7071e-005	0	0.00138696
   287	2.70095e-005	0	0.00137738
   288	2.69473e-005	0	0.00136787
   289	2.68848e-005	0	0.00135842
   290	2.68221e-005	0	0.00134904
   291	2.67587e-005	0	0.00133972
   292	2.6695e-005	0	0.00133046
   293	2.66311e-005	0	0.00132127
   294	2.65668e-005	0	0.00131215
   295	2.65023e-005	0	0.00130308
   296	2.64372e-005	0	0.00129408
   297	2.63719e-005	0	0.00128514
   298	2.63061e-005	0	0.00127627
   299	2.624e-005	0	0.00126745
   300	2.61737e-005	0	0.00125869
   301	2.61068e-005	0	0.00125

Measurement: are
  step	AVG((v(a)-aavg)*cos(360*time*freq))	FROM	TO
     1	6.27382e-005	0	0.01
     2	6.31792e-005	0	0.00993092
     3	6.36184e-005	0	0.00986233
     4	6.40605e-005	0	0.0097942
     5	6.45058e-005	0	0.00972655
     6	6.49541e-005	0	0.00965936
     7	6.54081e-005	0	0.00959264
     8	6.58627e-005	0	0.00952638
     9	6.63205e-005	0	0.00946058
    10	6.67814e-005	0	0.00939523
    11	6.72456e-005	0	0.00933033
    12	6.7713e-005	0	0.00926588
    13	6.81857e-005	0	0.00920188
    14	6.86596e-005	0	0.00913831
    15	6.914e-005	0	0.00907519
    16	6.96095e-005	0	0.0090125
    17	7.00957e-005	0	0.00895025
    18	7.05906e-005	0	0.00888843
    19	7.10655e-005	0	0.00882703
    20	7.15745e-005	0	0.00876606
    21	7.20726e-005	0	0.00870551
    22	7.25735e-005	0	0.00864537
    23	7.30778e-005	0	0.00858565
    24	7.35851e-005	0	0.00852635
    25	7.409e-005	0	0.00846745
    26	7.46132e-005	0	0.00840896
    27	7.51318e-005	0	0.00835088
    28	7.56539e-005	0	0.0082932
    29	7.61797e-005	0	0.00823591
    30	7.67092e-005	0	0.00817902
    31	7.72431e-005	0	0.00812252
    32	7.77772e-005	0	0.00806642
    33	7.83177e-005	0	0.0080107
    34	7.8862e-005	0	0.00795536
    35	7.94188e-005	0	0.00790041
    36	7.99665e-005	0	0.00784584
    37	8.05185e-005	0	0.00779165
    38	8.10703e-005	0	0.00773782
    39	8.16338e-005	0	0.00768438
    40	8.22013e-005	0	0.0076313
    41	8.27727e-005	0	0.00757858
    42	8.33571e-005	0	0.00752623
    43	8.39364e-005	0	0.00747425
    44	8.4507e-005	0	0.00742262
    45	8.50944e-005	0	0.00737135
    46	8.5686e-005	0	0.00732043
    47	8.62816e-005	0	0.00726986
    48	8.68846e-005	0	0.00721965
    49	8.7489e-005	0	0.00716978
    50	8.80972e-005	0	0.00712025
    51	8.87095e-005	0	0.00707107
    52	8.93262e-005	0	0.00702222
    53	8.99534e-005	0	0.00697372
    54	9.05833e-005	0	0.00692555
    55	9.12123e-005	0	0.00687771
    56	9.18462e-005	0	0.0068302
    57	9.24845e-005	0	0.00678302
    58	9.3122e-005	0	0.00673617
    59	9.37695e-005	0	0.00668964
    60	9.44212e-005	0	0.00664343
    61	9.50766e-005	0	0.00659754
    62	9.57375e-005	0	0.00655197
    63	9.64051e-005	0	0.00650671
    64	9.70696e-005	0	0.00646176
    65	9.77443e-005	0	0.00641713
    66	9.84237e-005	0	0.0063728
    67	9.91108e-005	0	0.00632878
    68	9.97998e-005	0	0.00628507
    69	0.000100493	0	0.00624165
    70	0.000101191	0	0.00619854
    71	0.000101895	0	0.00615572
    72	0.000102607	0	0.0061132
    73	0.000103323	0	0.00607097
    74	0.000104041	0	0.00602904
    75	0.000104771	0	0.00598739
    76	0.000105499	0	0.00594604
    77	0.000106236	0	0.00590496
    78	0.000106974	0	0.00586417
    79	0.000107717	0	0.00582367
    80	0.000108459	0	0.00578344
    81	0.00010921	0	0.00574349
    82	0.000109974	0	0.00570382
    83	0.000110738	0	0.00566442
    84	0.000111508	0	0.00562529
    85	0.000112282	0	0.00558644
    86	0.000113062	0	0.00554785
    87	0.000113849	0	0.00550953
    88	0.000114633	0	0.00547147
    89	0.00011543	0	0.00543367
    90	0.000116233	0	0.00539614
    91	0.00011705	0	0.00535887
    92	0.00011786	0	0.00532185
    93	0.000118669	0	0.00528509
    94	0.000119494	0	0.00524858
    95	0.000120331	0	0.00521233
    96	0.000121168	0	0.00517632
    97	0.00012201	0	0.00514057
    98	0.000122858	0	0.00510506
    99	0.000123713	0	0.0050698
   100	0.000124577	0	0.00503478
   101	0.000125443	0	0.005
   102	0.00012631	0	0.00496546
   103	0.000127198	0	0.00493116
   104	0.000128073	0	0.0048971
   105	0.000128967	0	0.00486327
   106	0.000129863	0	0.00482968
   107	0.000130766	0	0.00479632
   108	0.000131675	0	0.00476319
   109	0.000132587	0	0.00473029
   110	0.000133509	0	0.00469761
   111	0.000134431	0	0.00466516
   112	0.000135375	0	0.00463294
   113	0.000136307	0	0.00460094
   114	0.000137268	0	0.00456916
   115	0.000138224	0	0.0045376
   116	0.000139196	0	0.00450625
   117	0.000140152	0	0.00447513
   118	0.00014113	0	0.00444421
   119	0.000142099	0	0.00441351
   120	0.000143105	0	0.00438303
   121	0.000144101	0	0.00435275
   122	0.000145102	0	0.00432269
   123	0.000146111	0	0.00429283
   124	0.000147128	0	0.00426317
   125	0.000148151	0	0.00423373
   126	0.000149184	0	0.00420448
   127	0.000150221	0	0.00417544
   128	0.000151265	0	0.0041466
   129	0.000152316	0	0.00411796
   130	0.000153375	0	0.00408951
   131	0.000154438	0	0.00406126
   132	0.000155509	0	0.00403321
   133	0.000156593	0	0.00400535
   134	0.000157681	0	0.00397768
   135	0.000158773	0	0.00395021
   136	0.000159874	0	0.00392292
   137	0.000160986	0	0.00389582
   138	0.000162103	0	0.00386891
   139	0.000163228	0	0.00384219
   140	0.000164359	0	0.00381565
   141	0.000165504	0	0.00378929
   142	0.000166655	0	0.00376312
   143	0.000167818	0	0.00373712
   144	0.000168984	0	0.00371131
   145	0.000170159	0	0.00368567
   146	0.000171349	0	0.00366021
   147	0.000172543	0	0.00363493
   148	0.000173742	0	0.00360982
   149	0.000174949	0	0.00358489
   150	0.000176165	0	0.00356013
   151	0.000177389	0	0.00353553
   152	0.000178618	0	0.00351111
   153	0.000179855	0	0.00348686
   154	0.000181105	0	0.00346277
   155	0.000182365	0	0.00343885
   156	0.000183632	0	0.0034151
   157	0.000184907	0	0.00339151
   158	0.000186193	0	0.00336808
   159	0.000187487	0	0.00334482
   160	0.000188797	0	0.00332171
   161	0.000190114	0	0.00329877
   162	0.000191435	0	0.00327598
   163	0.000192769	0	0.00325335
   164	0.00019411	0	0.00323088
   165	0.000195456	0	0.00320856
   166	0.000196813	0	0.0031864
   167	0.000198177	0	0.00316439
   168	0.000199553	0	0.00314253
   169	0.000200941	0	0.00312083
   170	0.000202337	0	0.00309927
   171	0.000203749	0	0.00307786
   172	0.000205167	0	0.0030566
   173	0.000206594	0	0.00303549
   174	0.00020803	0	0.00301452
   175	0.000209481	0	0.0029937
   176	0.000210936	0	0.00297302
   177	0.000212403	0	0.00295248
   178	0.000213879	0	0.00293209
   179	0.000215367	0	0.00291183
   180	0.000216863	0	0.00289172
   181	0.000218368	0	0.00287175
   182	0.000219882	0	0.00285191
   183	0.000221409	0	0.00283221
   184	0.000222955	0	0.00281265
   185	0.000224503	0	0.00279322
   186	0.000226059	0	0.00277392
   187	0.000227627	0	0.00275476
   188	0.000229208	0	0.00273573
   189	0.000230801	0	0.00271684
   190	0.000232405	0	0.00269807
   191	0.000234029	0	0.00267943
   192	0.000235647	0	0.00266093
   193	0.000237287	0	0.00264255
   194	0.000238944	0	0.00262429
   195	0.000240609	0	0.00260616
   196	0.000242269	0	0.00258816
   197	0.000243954	0	0.00257028
   198	0.000245649	0	0.00255253
   199	0.000247361	0	0.0025349
   200	0.000249082	0	0.00251739
   201	0.000250803	0	0.0025
   202	0.000252554	0	0.00248273
   203	0.000254318	0	0.00246558
   204	0.00025607	0	0.00244855
   205	0.000257858	0	0.00243164
   206	0.000259658	0	0.00241484
   207	0.000261462	0	0.00239816
   208	0.00026328	0	0.00238159
   209	0.000265098	0	0.00236514
   210	0.000266955	0	0.00234881
   211	0.000268795	0	0.00233258
   212	0.000270672	0	0.00231647
   213	0.000272545	0	0.00230047
   214	0.00027444	0	0.00228458
   215	0.000276339	0	0.0022688
   216	0.000278263	0	0.00225313
   217	0.000280199	0	0.00223756
   218	0.000282123	0	0.00222211
   219	0.000284086	0	0.00220676
   220	0.000286044	0	0.00219151
   221	0.000288041	0	0.00217638
   222	0.000290038	0	0.00216134
   223	0.000292052	0	0.00214641
   224	0.000294073	0	0.00213159
   225	0.000296096	0	0.00211686
   226	0.00029814	0	0.00210224
   227	0.000300208	0	0.00208772
   228	0.000302296	0	0.0020733
   229	0.000304381	0	0.00205898
   230	0.000306484	0	0.00204476
   231	0.000308593	0	0.00203063
   232	0.000310735	0	0.0020166
   233	0.000312884	0	0.00200267
   234	0.00031504	0	0.00198884
   235	0.000317228	0	0.0019751
   236	0.000319424	0	0.00196146
   237	0.000321627	0	0.00194791
   238	0.000323835	0	0.00193446
   239	0.000326078	0	0.00192109
   240	0.000328312	0	0.00190782
   241	0.000330578	0	0.00189465
   242	0.000332884	0	0.00188156
   243	0.00033519	0	0.00186856
   244	0.00033754	0	0.00185565
   245	0.000339902	0	0.00184284
   246	0.000342313	0	0.00183011
   247	0.000344726	0	0.00181747
   248	0.000347169	0	0.00180491
   249	0.000349625	0	0.00179244
   250	0.000352073	0	0.00178006
   251	0.00035456	0	0.00176777
   252	0.000357067	0	0.00175556
   253	0.000359578	0	0.00174343
   254	0.000362111	0	0.00173139
   255	0.000364651	0	0.00171943
   256	0.000367188	0	0.00170755
   257	0.000369767	0	0.00169576
   258	0.000372326	0	0.00168404
   259	0.000374913	0	0.00167241
   260	0.000377521	0	0.00166086
   261	0.000380129	0	0.00164938
   262	0.000382774	0	0.00163799
   263	0.000385428	0	0.00162668
   264	0.000388088	0	0.00161544
   265	0.000390776	0	0.00160428
   266	0.000393507	0	0.0015932
   267	0.000396233	0	0.0015822
   268	0.000398975	0	0.00157127
   269	0.000401731	0	0.00156041
   270	0.000404521	0	0.00154963
   271	0.000407333	0	0.00153893
   272	0.000410162	0	0.0015283
   273	0.000413002	0	0.00151774
   274	0.000415848	0	0.00150726
   275	0.00041874	0	0.00149685
   276	0.000421633	0	0.00148651
   277	0.00042458	0	0.00147624
   278	0.000427521	0	0.00146604
   279	0.000430483	0	0.00145592
   280	0.000433473	0	0.00144586
   281	0.000436473	0	0.00143587
   282	0.000439492	0	0.00142595
   283	0.000442553	0	0.0014161
   284	0.000445608	0	0.00140632
   285	0.000448694	0	0.00139661
   286	0.000451795	0	0.00138696
   287	0.000454927	0	0.00137738
   288	0.000458054	0	0.00136787
   289	0.000461232	0	0.00135842
   290	0.000464437	0	0.00134904
   291	0.000467643	0	0.00133972
   292	0.00047087	0	0.00133046
   293	0.000474135	0	0.00132127
   294	0.000477414	0	0.00131215
   295	0.000480725	0	0.00130308
   296	0.000484057	0	0.00129408
   297	0.00048741	0	0.00128514
   298	0.000490789	0	0.00127627
   299	0.000494191	0	0.00126745
   300	0.000497616	0	0.00125869
   301	0.000501061	0	0.00125

Measurement: aim
  step	AVG(-(v(a)-aavg)*sin(360*time*freq))	FROM	TO
     1	-0.00498893	0	0.01
     2	-0.00498892	0	0.00993092
     3	-0.00498892	0	0.00986233
     4	-0.00498891	0	0.0097942
     5	-0.0049889	0	0.00972655
     6	-0.0049889	0	0.00965936
     7	-0.00498891	0	0.00959264
     8	-0.0049889	0	0.00952638
     9	-0.0049889	0	0.00946058
    10	-0.00498889	0	0.00939523
    11	-0.00498888	0	0.00933033
    12	-0.00498888	0	0.00926588
    13	-0.0049889	0	0.00920188
    14	-0.0049889	0	0.00913831
    15	-0.00498888	0	0.00907519
    16	-0.00498889	0	0.0090125
    17	-0.00498885	0	0.00895025
    18	-0.00498888	0	0.00888843
    19	-0.00498881	0	0.00882703
    20	-0.00498887	0	0.00876606
    21	-0.00498887	0	0.00870551
    22	-0.00498886	0	0.00864537
    23	-0.00498885	0	0.00858565
    24	-0.00498885	0	0.00852635
    25	-0.00498884	0	0.00846745
    26	-0.00498885	0	0.00840896
    27	-0.00498884	0	0.00835088
    28	-0.00498883	0	0.0082932
    29	-0.00498882	0	0.00823591
    30	-0.00498881	0	0.00817902
    31	-0.00498879	0	0.00812252
    32	-0.00498878	0	0.00806642
    33	-0.00498877	0	0.0080107
    34	-0.00498877	0	0.00795536
    35	-0.00498877	0	0.00790041
    36	-0.00498874	0	0.00784584
    37	-0.00498872	0	0.00779165
    38	-0.00498871	0	0.00773782
    39	-0.0049887	0	0.00768438
    40	-0.00498869	0	0.0076313
    41	-0.00498868	0	0.00757858
    42	-0.00498868	0	0.00752623
    43	-0.00498867	0	0.00747425
    44	-0.00498868	0	0.00742262
    45	-0.00498867	0	0.00737135
    46	-0.00498866	0	0.00732043
    47	-0.00498865	0	0.00726986
    48	-0.00498866	0	0.00721965
    49	-0.00498866	0	0.00716978
    50	-0.00498865	0	0.00712025
    51	-0.00498864	0	0.00707107
    52	-0.00498863	0	0.00702222
    53	-0.00498863	0	0.00697372
    54	-0.00498866	0	0.00692555
    55	-0.00498864	0	0.00687771
    56	-0.00498863	0	0.0068302
    57	-0.00498862	0	0.00678302
    58	-0.00498861	0	0.00673617
    59	-0.00498861	0	0.00668964
    60	-0.0049886	0	0.00664343
    61	-0.00498858	0	0.00659754
    62	-0.00498857	0	0.00655197
    63	-0.00498854	0	0.00650671
    64	-0.00498855	0	0.00646176
    65	-0.00498854	0	0.00641713
    66	-0.00498852	0	0.0063728
    67	-0.00498853	0	0.00632878
    68	-0.00498852	0	0.00628507
    69	-0.00498851	0	0.00624165
    70	-0.00498849	0	0.00619854
    71	-0.00498849	0	0.00615572
    72	-0.00498849	0	0.0061132
    73	-0.00498848	0	0.00607097
    74	-0.00498847	0	0.00602904
    75	-0.00498847	0	0.00598739
    76	-0.00498843	0	0.00594604
    77	-0.00498844	0	0.00590496
    78	-0.00498843	0	0.00586417
    79	-0.00498841	0	0.00582367
    80	-0.00498841	0	0.00578344
    81	-0.0049884	0	0.00574349
    82	-0.0049884	0	0.00570382
    83	-0.00498838	0	0.00566442
    84	-0.00498837	0	0.00562529
    85	-0.00498835	0	0.00558644
    86	-0.00498833	0	0.00554785
    87	-0.00498832	0	0.00550953
    88	-0.00498828	0	0.00547147
    89	-0.00498827	0	0.00543367
    90	-0.00498825	0	0.00539614
    91	-0.00498824	0	0.00535887
    92	-0.00498822	0	0.00532185
    93	-0.00498822	0	0.00528509
    94	-0.0049882	0	0.00524858
    95	-0.00498819	0	0.00521233
    96	-0.00498817	0	0.00517632
    97	-0.00498815	0	0.00514057
    98	-0.00498813	0	0.00510506
    99	-0.00498811	0	0.0050698
   100	-0.00498811	0	0.00503478
   101	-0.00498809	0	0.005
   102	-0.00498806	0	0.00496546
   103	-0.00498805	0	0.00493116
   104	-0.00498804	0	0.0048971
   105	-0.00498802	0	0.00486327
   106	-0.004988	0	0.00482968
   107	-0.00498797	0	0.00479632
   108	-0.00498795	0	0.00476319
   109	-0.00498792	0	0.00473029
   110	-0.0049879	0	0.00469761
   111	-0.00498788	0	0.00466516
   112	-0.00498786	0	0.00463294
   113	-0.00498783	0	0.00460094
   114	-0.00498784	0	0.00456916
   115	-0.00498781	0	0.0045376
   116	-0.00498778	0	0.00450625
   117	-0.00498778	0	0.00447513
   118	-0.00498773	0	0.00444421
   119	-0.0049877	0	0.00441351
   120	-0.00498771	0	0.00438303
   121	-0.00498771	0	0.00435275
   122	-0.00498768	0	0.00432269
   123	-0.00498765	0	0.00429283
   124	-0.00498764	0	0.00426317
   125	-0.00498761	0	0.00423373
   126	-0.0049876	0	0.00420448
   127	-0.00498759	0	0.00417544
   128	-0.00498755	0	0.0041466
   129	-0.00498753	0	0.00411796
   130	-0.00498749	0	0.00408951
   131	-0.00498745	0	0.00406126
   132	-0.00498743	0	0.00403321
   133	-0.00498742	0	0.00400535
   134	-0.00498739	0	0.00397768
   135	-0.00498737	0	0.00395021
   136	-0.00498734	0	0.00392292
   137	-0.00498731	0	0.00389582
   138	-0.00498728	0	0.00386891
   139	-0.00498723	0	0.00384219
   140	-0.00498717	0	0.00381565
   141	-0.00498716	0	0.00378929
   142	-0.0049871	0	0.00376312
   143	-0.00498708	0	0.00373712
   144	-0.00498704	0	0.00371131
   145	-0.00498701	0	0.00368567
   146	-0.00498699	0	0.00366021
   147	-0.00498696	0	0.00363493
   148	-0.00498692	0	0.00360982
   149	-0.00498689	0	0.00358489
   150	-0.00498685	0	0.00356013
   151	-0.0049868	0	0.00353553
   152	-0.00498675	0	0.00351111
   153	-0.0049867	0	0.00348686
   154	-0.00498666	0	0.00346277
   155	-0.00498665	0	0.00343885
   156	-0.00498661	0	0.0034151
   157	-0.00498656	0	0.00339151
   158	-0.00498653	0	0.00336808
   159	-0.00498649	0	0.00334482
   160	-0.00498646	0	0.00332171
   161	-0.00498642	0	0.00329877
   162	-0.00498639	0	0.00327598
   163	-0.00498636	0	0.00325335
   164	-0.00498632	0	0.00323088
   165	-0.00498627	0	0.00320856
   166	-0.00498623	0	0.0031864
   167	-0.00498618	0	0.00316439
   168	-0.00498614	0	0.00314253
   169	-0.00498609	0	0.00312083
   170	-0.00498603	0	0.00309927
   171	-0.00498599	0	0.00307786
   172	-0.00498596	0	0.0030566
   173	-0.00498592	0	0.00303549
   174	-0.00498587	0	0.00301452
   175	-0.00498583	0	0.0029937
   176	-0.00498577	0	0.00297302
   177	-0.00498573	0	0.00295248
   178	-0.00498566	0	0.00293209
   179	-0.00498562	0	0.00291183
   180	-0.00498556	0	0.00289172
   181	-0.00498551	0	0.00287175
   182	-0.00498543	0	0.00285191
   183	-0.00498536	0	0.00283221
   184	-0.00498534	0	0.00281265
   185	-0.00498527	0	0.00279322
   186	-0.00498518	0	0.00277392
   187	-0.00498514	0	0.00275476
   188	-0.00498507	0	0.00273573
   189	-0.00498502	0	0.00271684
   190	-0.00498494	0	0.00269807
   191	-0.00498487	0	0.00267943
   192	-0.00498481	0	0.00266093
   193	-0.00498477	0	0.00264255
   194	-0.00498469	0	0.00262429
   195	-0.0049846	0	0.00260616
   196	-0.00498451	0	0.00258816
   197	-0.00498445	0	0.00257028
   198	-0.00498438	0	0.00255253
   199	-0.00498432	0	0.0025349
   200	-0.00498424	0	0.00251739
   201	-0.00498415	0	0.0025
   202	-0.00498408	0	0.00248273
   203	-0.00498401	0	0.00246558
   204	-0.00498394	0	0.00244855
   205	-0.00498385	0	0.00243164
   206	-0.00498377	0	0.00241484
   207	-0.0049837	0	0.00239816
   208	-0.00498362	0	0.00238159
   209	-0.00498354	0	0.00236514
   210	-0.00498346	0	0.00234881
   211	-0.00498338	0	0.00233258
   212	-0.00498329	0	0.00231647
   213	-0.0049832	0	0.00230047
   214	-0.00498312	0	0.00228458
   215	-0.00498304	0	0.0022688
   216	-0.00498293	0	0.00225313
   217	-0.00498285	0	0.00223756
   218	-0.00498274	0	0.00222211
   219	-0.00498264	0	0.00220676
   220	-0.00498252	0	0.00219151
   221	-0.00498244	0	0.00217638
   222	-0.00498233	0	0.00216134
   223	-0.00498222	0	0.00214641
   224	-0.00498211	0	0.00213159
   225	-0.00498197	0	0.00211686
   226	-0.00498186	0	0.00210224
   227	-0.00498174	0	0.00208772
   228	-0.00498163	0	0.0020733
   229	-0.0049815	0	0.00205898
   230	-0.00498137	0	0.00204476
   231	-0.00498123	0	0.00203063
   232	-0.00498108	0	0.0020166
   233	-0.00498094	0	0.00200267
   234	-0.00498076	0	0.00198884
   235	-0.00498062	0	0.0019751
   236	-0.00498048	0	0.00196146
   237	-0.0049803	0	0.00194791
   238	-0.00498012	0	0.00193446
   239	-0.00497998	0	0.00192109
   240	-0.00497981	0	0.00190782
   241	-0.00497966	0	0.00189465
   242	-0.0049795	0	0.00188156
   243	-0.00497932	0	0.00186856
   244	-0.00497912	0	0.00185565
   245	-0.00497898	0	0.00184284
   246	-0.00497878	0	0.00183011
   247	-0.00497861	0	0.00181747
   248	-0.00497841	0	0.00180491
   249	-0.00497823	0	0.00179244
   250	-0.00497806	0	0.00178006
   251	-0.00497792	0	0.00176777
   252	-0.00497781	0	0.00175556
   253	-0.00497765	0	0.00174343
   254	-0.0049775	0	0.00173139
   255	-0.00497734	0	0.00171943
   256	-0.00497719	0	0.00170755
   257	-0.00497705	0	0.00169576
   258	-0.00497688	0	0.00168404
   259	-0.00497671	0	0.00167241
   260	-0.00497658	0	0.00166086
   261	-0.00497642	0	0.00164938
   262	-0.00497623	0	0.00163799
   263	-0.00497607	0	0.00162668
   264	-0.00497589	0	0.00161544
   265	-0.00497573	0	0.00160428
   266	-0.00497555	0	0.0015932
   267	-0.00497536	0	0.0015822
   268	-0.00497516	0	0.00157127
   269	-0.00497496	0	0.00156041
   270	-0.0049748	0	0.00154963
   271	-0.00497458	0	0.00153893
   272	-0.00497441	0	0.0015283
   273	-0.00497421	0	0.00151774
   274	-0.00497401	0	0.00150726
   275	-0.00497379	0	0.00149685
   276	-0.00497357	0	0.00148651
   277	-0.00497336	0	0.00147624
   278	-0.00497315	0	0.00146604
   279	-0.00497291	0	0.00145592
   280	-0.00497271	0	0.00144586
   281	-0.00497246	0	0.00143587
   282	-0.00497224	0	0.00142595
   283	-0.004972	0	0.0014161
   284	-0.00497175	0	0.00140632
   285	-0.00497148	0	0.00139661
   286	-0.00497121	0	0.00138696
   287	-0.00497095	0	0.00137738
   288	-0.00497072	0	0.00136787
   289	-0.00497043	0	0.00135842
   290	-0.00497013	0	0.00134904
   291	-0.00496985	0	0.00133972
   292	-0.00496959	0	0.00133046
   293	-0.00496933	0	0.00132127
   294	-0.00496905	0	0.00131215
   295	-0.00496873	0	0.00130308
   296	-0.00496842	0	0.00129408
   297	-0.00496812	0	0.00128514
   298	-0.00496777	0	0.00127627
   299	-0.00496745	0	0.00126745
   300	-0.00496711	0	0.00125869
   301	-0.00496678	0	0.00125

Measurement: bre
  step	AVG((v(b)-bavg)*cos(360*time*freq))	FROM	TO
     1	-0.000201307	0	0.01
     2	-0.00019996	0	0.00993092
     3	-0.000198619	0	0.00986233
     4	-0.000197284	0	0.0097942
     5	-0.000195955	0	0.00972655
     6	-0.000194632	0	0.00965936
     7	-0.000193315	0	0.00959264
     8	-0.000192004	0	0.00952638
     9	-0.000190699	0	0.00946058
    10	-0.0001894	0	0.00939523
    11	-0.000188107	0	0.00933033
    12	-0.00018682	0	0.00926588
    13	-0.000185539	0	0.00920188
    14	-0.000184263	0	0.00913831
    15	-0.000182994	0	0.00907519
    16	-0.000181731	0	0.0090125
    17	-0.000180473	0	0.00895025
    18	-0.000179222	0	0.00888843
    19	-0.000177976	0	0.00882703
    20	-0.000176736	0	0.00876606
    21	-0.000175502	0	0.00870551
    22	-0.000174274	0	0.00864537
    23	-0.000173052	0	0.00858565
    24	-0.000171835	0	0.00852635
    25	-0.000170625	0	0.00846745
    26	-0.00016942	0	0.00840896
    27	-0.000168221	0	0.00835088
    28	-0.000167028	0	0.0082932
    29	-0.000165841	0	0.00823591
    30	-0.000164659	0	0.00817902
    31	-0.000163483	0	0.00812252
    32	-0.000162313	0	0.00806642
    33	-0.000161149	0	0.0080107
    34	-0.00015999	0	0.00795536
    35	-0.000158837	0	0.00790041
    36	-0.00015769	0	0.00784584
    37	-0.000156548	0	0.00779165
    38	-0.000155412	0	0.00773782
    39	-0.000154282	0	0.00768438
    40	-0.000153157	0	0.0076313
    41	-0.000152038	0	0.00757858
    42	-0.000150924	0	0.00752623
    43	-0.000149816	0	0.00747425
    44	-0.000148713	0	0.00742262
    45	-0.000147616	0	0.00737135
    46	-0.000146525	0	0.00732043
    47	-0.000145438	0	0.00726986
    48	-0.000144357	0	0.00721965
    49	-0.000143282	0	0.00716978
    50	-0.000142212	0	0.00712025
    51	-0.000141147	0	0.00707107
    52	-0.000140088	0	0.00702222
    53	-0.000139034	0	0.00697372
    54	-0.000137985	0	0.00692555
    55	-0.000136942	0	0.00687771
    56	-0.000135904	0	0.0068302
    57	-0.000134871	0	0.00678302
    58	-0.000133843	0	0.00673617
    59	-0.00013282	0	0.00668964
    60	-0.000131803	0	0.00664343
    61	-0.000130791	0	0.00659754
    62	-0.000129783	0	0.00655197
    63	-0.000128781	0	0.00650671
    64	-0.000127784	0	0.00646176
    65	-0.000126792	0	0.00641713
    66	-0.000125805	0	0.0063728
    67	-0.000124822	0	0.00632878
    68	-0.000123845	0	0.00628507
    69	-0.000122873	0	0.00624165
    70	-0.000121905	0	0.00619854
    71	-0.000120943	0	0.00615572
    72	-0.000119985	0	0.0061132
    73	-0.000119032	0	0.00607097
    74	-0.000118084	0	0.00602904
    75	-0.00011714	0	0.00598739
    76	-0.000116201	0	0.00594604
    77	-0.000115268	0	0.00590496
    78	-0.000114338	0	0.00586417
    79	-0.000113413	0	0.00582367
    80	-0.000112493	0	0.00578344
    81	-0.000111578	0	0.00574349
    82	-0.000110667	0	0.00570382
    83	-0.00010976	0	0.00566442
    84	-0.000108859	0	0.00562529
    85	-0.000107961	0	0.00558644
    86	-0.000107068	0	0.00554785
    87	-0.00010618	0	0.00550953
    88	-0.000105297	0	0.00547147
    89	-0.000104417	0	0.00543367
    90	-0.000103541	0	0.00539614
    91	-0.000102669	0	0.00535887
    92	-0.000101802	0	0.00532185
    93	-0.000100939	0	0.00528509
    94	-0.000100081	0	0.00524858
    95	-9.92262e-005	0	0.00521233
    96	-9.83758e-005	0	0.00517632
    97	-9.75295e-005	0	0.00514057
    98	-9.66873e-005	0	0.00510506
    99	-9.58492e-005	0	0.0050698
   100	-9.50152e-005	0	0.00503478
   101	-9.41851e-005	0	0.005
   102	-9.3359e-005	0	0.00496546
   103	-9.2537e-005	0	0.00493116
   104	-9.17189e-005	0	0.0048971
   105	-9.09046e-005	0	0.00486327
   106	-9.00941e-005	0	0.00482968
   107	-8.92875e-005	0	0.00479632
   108	-8.84846e-005	0	0.00476319
   109	-8.76856e-005	0	0.00473029
   110	-8.68903e-005	0	0.00469761
   111	-8.60987e-005	0	0.00466516
   112	-8.53109e-005	0	0.00463294
   113	-8.45266e-005	0	0.00460094
   114	-8.37461e-005	0	0.00456916
   115	-8.2969e-005	0	0.0045376
   116	-8.21958e-005	0	0.00450625
   117	-8.14258e-005	0	0.00447513
   118	-8.06596e-005	0	0.00444421
   119	-7.98966e-005	0	0.00441351
   120	-7.91373e-005	0	0.00438303
   121	-7.83814e-005	0	0.00435275
   122	-7.76288e-005	0	0.00432269
   123	-7.68795e-005	0	0.00429283
   124	-7.61338e-005	0	0.00426317
   125	-7.53912e-005	0	0.00423373
   126	-7.46519e-005	0	0.00420448
   127	-7.39161e-005	0	0.00417544
   128	-7.31832e-005	0	0.0041466
   129	-7.24538e-005	0	0.00411796
   130	-7.17273e-005	0	0.00408951
   131	-7.10041e-005	0	0.00406126
   132	-7.02842e-005	0	0.00403321
   133	-6.95671e-005	0	0.00400535
   134	-6.88532e-005	0	0.00397768
   135	-6.81424e-005	0	0.00395021
   136	-6.7435e-005	0	0.00392292
   137	-6.67299e-005	0	0.00389582
   138	-6.60277e-005	0	0.00386891
   139	-6.53283e-005	0	0.00384219
   140	-6.46319e-005	0	0.00381565
   141	-6.39384e-005	0	0.00378929
   142	-6.32477e-005	0	0.00376312
   143	-6.25597e-005	0	0.00373712
   144	-6.18745e-005	0	0.00371131
   145	-6.11922e-005	0	0.00368567
   146	-6.05125e-005	0	0.00366021
   147	-5.98354e-005	0	0.00363493
   148	-5.9161e-005	0	0.00360982
   149	-5.84894e-005	0	0.00358489
   150	-5.78202e-005	0	0.00356013
   151	-5.71536e-005	0	0.00353553
   152	-5.64896e-005	0	0.00351111
   153	-5.58281e-005	0	0.00348686
   154	-5.51692e-005	0	0.00346277
   155	-5.45126e-005	0	0.00343885
   156	-5.38584e-005	0	0.0034151
   157	-5.32068e-005	0	0.00339151
   158	-5.25574e-005	0	0.00336808
   159	-5.19105e-005	0	0.00334482
   160	-5.1266e-005	0	0.00332171
   161	-5.06235e-005	0	0.00329877
   162	-4.99836e-005	0	0.00327598
   163	-4.93458e-005	0	0.00325335
   164	-4.87103e-005	0	0.00323088
   165	-4.80771e-005	0	0.00320856
   166	-4.74461e-005	0	0.0031864
   167	-4.68168e-005	0	0.00316439
   168	-4.61897e-005	0	0.00314253
   169	-4.55647e-005	0	0.00312083
   170	-4.49416e-005	0	0.00309927
   171	-4.43206e-005	0	0.00307786
   172	-4.37017e-005	0	0.0030566
   173	-4.30847e-005	0	0.00303549
   174	-4.24695e-005	0	0.00301452
   175	-4.18564e-005	0	0.0029937
   176	-4.12451e-005	0	0.00297302
   177	-4.06358e-005	0	0.00295248
   178	-4.00281e-005	0	0.00293209
   179	-3.94224e-005	0	0.00291183
   180	-3.88185e-005	0	0.00289172
   181	-3.82163e-005	0	0.00287175
   182	-3.76158e-005	0	0.00285191
   183	-3.7017e-005	0	0.00283221
   184	-3.64201e-005	0	0.00281265
   185	-3.58247e-005	0	0.00279322
   186	-3.52312e-005	0	0.00277392
   187	-3.46389e-005	0	0.00275476
   188	-3.40482e-005	0	0.00273573
   189	-3.34591e-005	0	0.00271684
   190	-3.28714e-005	0	0.00269807
   191	-3.22852e-005	0	0.00267943
   192	-3.17004e-005	0	0.00266093
   193	-3.11171e-005	0	0.00264255
   194	-3.05353e-005	0	0.00262429
   195	-2.99548e-005	0	0.00260616
   196	-2.93757e-005	0	0.00258816
   197	-2.87979e-005	0	0.00257028
   198	-2.82215e-005	0	0.00255253
   199	-2.76464e-005	0	0.0025349
   200	-2.70728e-005	0	0.00251739
   201	-2.65e-005	0	0.0025
   202	-2.59285e-005	0	0.00248273
   203	-2.53582e-005	0	0.00246558
   204	-2.47889e-005	0	0.00244855
   205	-2.42208e-005	0	0.00243164
   206	-2.36539e-005	0	0.00241484
   207	-2.3088e-005	0	0.00239816
   208	-2.25231e-005	0	0.00238159
   209	-2.19592e-005	0	0.00236514
   210	-2.13965e-005	0	0.00234881
   211	-2.08349e-005	0	0.00233258
   212	-2.02739e-005	0	0.00231647
   213	-1.97139e-005	0	0.00230047
   214	-1.91547e-005	0	0.00228458
   215	-1.85963e-005	0	0.0022688
   216	-1.8039e-005	0	0.00225313
   217	-1.74823e-005	0	0.00223756
   218	-1.69265e-005	0	0.00222211
   219	-1.63718e-005	0	0.00220676
   220	-1.58174e-005	0	0.00219151
   221	-1.52638e-005	0	0.00217638
   222	-1.47109e-005	0	0.00216134
   223	-1.41586e-005	0	0.00214641
   224	-1.3607e-005	0	0.00213159
   225	-1.30561e-005	0	0.00211686
   226	-1.25057e-005	0	0.00210224
   227	-1.19558e-005	0	0.00208772
   228	-1.14064e-005	0	0.0020733
   229	-1.08576e-005	0	0.00205898
   230	-1.03093e-005	0	0.00204476
   231	-9.76146e-006	0	0.00203063
   232	-9.21397e-006	0	0.0020166
   233	-8.66688e-006	0	0.00200267
   234	-8.12019e-006	0	0.00198884
   235	-7.57387e-006	0	0.0019751
   236	-7.02786e-006	0	0.00196146
   237	-6.48217e-006	0	0.00194791
   238	-5.93676e-006	0	0.00193446
   239	-5.39163e-006	0	0.00192109
   240	-4.8467e-006	0	0.00190782
   241	-4.30197e-006	0	0.00189465
   242	-3.75745e-006	0	0.00188156
   243	-3.21311e-006	0	0.00186856
   244	-2.66889e-006	0	0.00185565
   245	-2.12484e-006	0	0.00184284
   246	-1.58085e-006	0	0.00183011
   247	-1.03697e-006	0	0.00181747
   248	-4.9313e-007	0	0.00180491
   249	5.06855e-008	0	0.00179244
   250	5.94499e-007	0	0.00178006
   251	1.13838e-006	0	0.00176777
   252	1.68233e-006	0	0.00175556
   253	2.22639e-006	0	0.00174343
   254	2.77059e-006	0	0.00173139
   255	3.31498e-006	0	0.00171943
   256	3.85951e-006	0	0.00170755
   257	4.4043e-006	0	0.00169576
   258	4.94929e-006	0	0.00168404
   259	5.49457e-006	0	0.00167241
   260	6.04013e-006	0	0.00166086
   261	6.58597e-006	0	0.00164938
   262	7.13212e-006	0	0.00163799
   263	7.67867e-006	0	0.00162668
   264	8.22556e-006	0	0.00161544
   265	8.77279e-006	0	0.00160428
   266	9.32063e-006	0	0.0015932
   267	9.86881e-006	0	0.0015822
   268	1.04175e-005	0	0.00157127
   269	1.09665e-005	0	0.00156041
   270	1.15164e-005	0	0.00154963
   271	1.20666e-005	0	0.00153893
   272	1.26174e-005	0	0.0015283
   273	1.31688e-005	0	0.00151774
   274	1.37209e-005	0	0.00150726
   275	1.42737e-005	0	0.00149685
   276	1.48271e-005	0	0.00148651
   277	1.53811e-005	0	0.00147624
   278	1.5936e-005	0	0.00146604
   279	1.64917e-005	0	0.00145592
   280	1.70482e-005	0	0.00144586
   281	1.76054e-005	0	0.00143587
   282	1.81635e-005	0	0.00142595
   283	1.87224e-005	0	0.0014161
   284	1.9282e-005	0	0.00140632
   285	1.98424e-005	0	0.00139661
   286	2.04038e-005	0	0.00138696
   287	2.09661e-005	0	0.00137738
   288	2.15295e-005	0	0.00136787
   289	2.20939e-005	0	0.00135842
   290	2.26593e-005	0	0.00134904
   291	2.32257e-005	0	0.00133972
   292	2.37933e-005	0	0.00133046
   293	2.4362e-005	0	0.00132127
   294	2.49316e-005	0	0.00131215
   295	2.55025e-005	0	0.00130308
   296	2.60746e-005	0	0.00129408
   297	2.6648e-005	0	0.00128514
   298	2.72226e-005	0	0.00127627
   299	2.77985e-005	0	0.00126745
   300	2.83757e-005	0	0.00125869
   301	2.89543e-005	0	0.00125

Measurement: bim
  step	AVG(-(v(b)-bavg)*sin(360*time*freq))	FROM	TO
     1	-5.48822e-005	0	0.01
     2	-5.42361e-005	0	0.00993092
     3	-5.35979e-005	0	0.00986233
     4	-5.29674e-005	0	0.0097942
     5	-5.23445e-005	0	0.00972655
     6	-5.1729e-005	0	0.00965936
     7	-5.11209e-005	0	0.00959264
     8	-5.05201e-005	0	0.00952638
     9	-4.99265e-005	0	0.00946058
    10	-4.934e-005	0	0.00939523
    11	-4.87606e-005	0	0.00933033
    12	-4.81882e-005	0	0.00926588
    13	-4.76229e-005	0	0.00920188
    14	-4.70642e-005	0	0.00913831
    15	-4.6512e-005	0	0.00907519
    16	-4.59673e-005	0	0.0090125
    17	-4.54283e-005	0	0.00895025
    18	-4.48962e-005	0	0.00888843
    19	-4.43705e-005	0	0.00882703
    20	-4.38512e-005	0	0.00876606
    21	-4.33382e-005	0	0.00870551
    22	-4.28315e-005	0	0.00864537
    23	-4.23309e-005	0	0.00858565
    24	-4.18364e-005	0	0.00852635
    25	-4.13481e-005	0	0.00846745
    26	-4.08654e-005	0	0.00840896
    27	-4.03888e-005	0	0.00835088
    28	-3.99179e-005	0	0.0082932
    29	-3.94529e-005	0	0.00823591
    30	-3.89935e-005	0	0.00817902
    31	-3.85395e-005	0	0.00812252
    32	-3.80914e-005	0	0.00806642
    33	-3.76487e-005	0	0.0080107
    34	-3.72114e-005	0	0.00795536
    35	-3.67792e-005	0	0.00790041
    36	-3.63526e-005	0	0.00784584
    37	-3.59312e-005	0	0.00779165
    38	-3.55152e-005	0	0.00773782
    39	-3.5104e-005	0	0.00768438
    40	-3.46979e-005	0	0.0076313
    41	-3.42968e-005	0	0.00757858
    42	-3.39004e-005	0	0.00752623
    43	-3.35091e-005	0	0.00747425
    44	-3.31231e-005	0	0.00742262
    45	-3.27414e-005	0	0.00737135
    46	-3.23644e-005	0	0.00732043
    47	-3.1992e-005	0	0.00726986
    48	-3.16242e-005	0	0.00721965
    49	-3.1261e-005	0	0.00716978
    50	-3.09022e-005	0	0.00712025
    51	-3.05479e-005	0	0.00707107
    52	-3.01979e-005	0	0.00702222
    53	-2.98521e-005	0	0.00697372
    54	-2.95107e-005	0	0.00692555
    55	-2.91735e-005	0	0.00687771
    56	-2.88405e-005	0	0.0068302
    57	-2.85116e-005	0	0.00678302
    58	-2.81869e-005	0	0.00673617
    59	-2.78661e-005	0	0.00668964
    60	-2.75492e-005	0	0.00664343
    61	-2.72363e-005	0	0.00659754
    62	-2.69272e-005	0	0.00655197
    63	-2.66218e-005	0	0.00650671
    64	-2.63205e-005	0	0.00646176
    65	-2.60227e-005	0	0.00641713
    66	-2.57286e-005	0	0.0063728
    67	-2.54381e-005	0	0.00632878
    68	-2.51513e-005	0	0.00628507
    69	-2.4868e-005	0	0.00624165
    70	-2.45881e-005	0	0.00619854
    71	-2.43118e-005	0	0.00615572
    72	-2.40388e-005	0	0.0061132
    73	-2.37691e-005	0	0.00607097
    74	-2.35029e-005	0	0.00602904
    75	-2.32398e-005	0	0.00598739
    76	-2.298e-005	0	0.00594604
    77	-2.27235e-005	0	0.00590496
    78	-2.24701e-005	0	0.00586417
    79	-2.22199e-005	0	0.00582367
    80	-2.1973e-005	0	0.00578344
    81	-2.1729e-005	0	0.00574349
    82	-2.14878e-005	0	0.00570382
    83	-2.12497e-005	0	0.00566442
    84	-2.10145e-005	0	0.00562529
    85	-2.07823e-005	0	0.00558644
    86	-2.05528e-005	0	0.00554785
    87	-2.03262e-005	0	0.00550953
    88	-2.01025e-005	0	0.00547147
    89	-1.98815e-005	0	0.00543367
    90	-1.96631e-005	0	0.00539614
    91	-1.94473e-005	0	0.00535887
    92	-1.92343e-005	0	0.00532185
    93	-1.90242e-005	0	0.00528509
    94	-1.88163e-005	0	0.00524858
    95	-1.8611e-005	0	0.00521233
    96	-1.84082e-005	0	0.00517632
    97	-1.82079e-005	0	0.00514057
    98	-1.80101e-005	0	0.00510506
    99	-1.78146e-005	0	0.0050698
   100	-1.76216e-005	0	0.00503478
   101	-1.74309e-005	0	0.005
   102	-1.72426e-005	0	0.00496546
   103	-1.70564e-005	0	0.00493116
   104	-1.68729e-005	0	0.0048971
   105	-1.66912e-005	0	0.00486327
   106	-1.65119e-005	0	0.00482968
   107	-1.63347e-005	0	0.00479632
   108	-1.61597e-005	0	0.00476319
   109	-1.59869e-005	0	0.00473029
   110	-1.58161e-005	0	0.00469761
   111	-1.56474e-005	0	0.00466516
   112	-1.54806e-005	0	0.00463294
   113	-1.53161e-005	0	0.00460094
   114	-1.51532e-005	0	0.00456916
   115	-1.49925e-005	0	0.0045376
   116	-1.48335e-005	0	0.00450625
   117	-1.46768e-005	0	0.00447513
   118	-1.45217e-005	0	0.00444421
   119	-1.43687e-005	0	0.00441351
   120	-1.42172e-005	0	0.00438303
   121	-1.40678e-005	0	0.00435275
   122	-1.392e-005	0	0.00432269
   123	-1.37741e-005	0	0.00429283
   124	-1.36299e-005	0	0.00426317
   125	-1.34874e-005	0	0.00423373
   126	-1.33466e-005	0	0.00420448
   127	-1.32074e-005	0	0.00417544
   128	-1.30699e-005	0	0.0041466
   129	-1.29341e-005	0	0.00411796
   130	-1.27998e-005	0	0.00408951
   131	-1.26671e-005	0	0.00406126
   132	-1.2536e-005	0	0.00403321
   133	-1.24065e-005	0	0.00400535
   134	-1.22784e-005	0	0.00397768
   135	-1.21519e-005	0	0.00395021
   136	-1.20268e-005	0	0.00392292
   137	-1.19032e-005	0	0.00389582
   138	-1.1781e-005	0	0.00386891
   139	-1.16602e-005	0	0.00384219
   140	-1.15408e-005	0	0.00381565
   141	-1.14227e-005	0	0.00378929
   142	-1.1306e-005	0	0.00376312
   143	-1.11907e-005	0	0.00373712
   144	-1.10766e-005	0	0.00371131
   145	-1.09639e-005	0	0.00368567
   146	-1.08524e-005	0	0.00366021
   147	-1.07423e-005	0	0.00363493
   148	-1.06333e-005	0	0.00360982
   149	-1.05257e-005	0	0.00358489
   150	-1.04192e-005	0	0.00356013
   151	-1.03139e-005	0	0.00353553
   152	-1.02098e-005	0	0.00351111
   153	-1.01069e-005	0	0.00348686
   154	-1.00051e-005	0	0.00346277
   155	-9.90451e-006	0	0.00343885
   156	-9.80495e-006	0	0.0034151
   157	-9.70652e-006	0	0.00339151
   158	-9.60915e-006	0	0.00336808
   159	-9.51285e-006	0	0.00334482
   160	-9.41754e-006	0	0.00332171
   161	-9.32329e-006	0	0.00329877
   162	-9.2301e-006	0	0.00327598
   163	-9.13789e-006	0	0.00325335
   164	-9.04669e-006	0	0.00323088
   165	-8.95649e-006	0	0.00320856
   166	-8.86725e-006	0	0.0031864
   167	-8.77895e-006	0	0.00316439
   168	-8.69157e-006	0	0.00314253
   169	-8.6051e-006	0	0.00312083
   170	-8.51951e-006	0	0.00309927
   171	-8.43479e-006	0	0.00307786
   172	-8.35099e-006	0	0.0030566
   173	-8.26805e-006	0	0.00303549
   174	-8.18595e-006	0	0.00301452
   175	-8.10468e-006	0	0.0029937
   176	-8.02424e-006	0	0.00297302
   177	-7.94463e-006	0	0.00295248
   178	-7.8658e-006	0	0.00293209
   179	-7.78777e-006	0	0.00291183
   180	-7.71052e-006	0	0.00289172
   181	-7.63404e-006	0	0.00287175
   182	-7.5583e-006	0	0.00285191
   183	-7.48329e-006	0	0.00283221
   184	-7.40899e-006	0	0.00281265
   185	-7.33544e-006	0	0.00279322
   186	-7.26259e-006	0	0.00277392
   187	-7.19045e-006	0	0.00275476
   188	-7.11895e-006	0	0.00273573
   189	-7.04813e-006	0	0.00271684
   190	-6.97794e-006	0	0.00269807
   191	-6.90836e-006	0	0.00267943
   192	-6.83951e-006	0	0.00266093
   193	-6.77125e-006	0	0.00264255
   194	-6.70354e-006	0	0.00262429
   195	-6.63645e-006	0	0.00260616
   196	-6.57003e-006	0	0.00258816
   197	-6.50416e-006	0	0.00257028
   198	-6.43886e-006	0	0.00255253
   199	-6.3741e-006	0	0.0025349
   200	-6.30991e-006	0	0.00251739
   201	-6.24629e-006	0	0.0025
   202	-6.18313e-006	0	0.00248273
   203	-6.12049e-006	0	0.00246558
   204	-6.05847e-006	0	0.00244855
   205	-5.99684e-006	0	0.00243164
   206	-5.9357e-006	0	0.00241484
   207	-5.87509e-006	0	0.00239816
   208	-5.81495e-006	0	0.00238159
   209	-5.75532e-006	0	0.00236514
   210	-5.69605e-006	0	0.00234881
   211	-5.63734e-006	0	0.00233258
   212	-5.57896e-006	0	0.00231647
   213	-5.52107e-006	0	0.00230047
   214	-5.46357e-006	0	0.00228458
   215	-5.40652e-006	0	0.0022688
   216	-5.3498e-006	0	0.00225313
   217	-5.29349e-006	0	0.00223756
   218	-5.23765e-006	0	0.00222211
   219	-5.18211e-006	0	0.00220676
   220	-5.12695e-006	0	0.00219151
   221	-5.07211e-006	0	0.00217638
   222	-5.01764e-006	0	0.00216134
   223	-4.96349e-006	0	0.00214641
   224	-4.9097e-006	0	0.00213159
   225	-4.85625e-006	0	0.00211686
   226	-4.8031e-006	0	0.00210224
   227	-4.75023e-006	0	0.00208772
   228	-4.69765e-006	0	0.0020733
   229	-4.64539e-006	0	0.00205898
   230	-4.5934e-006	0	0.00204476
   231	-4.54169e-006	0	0.00203063
   232	-4.4902e-006	0	0.0020166
   233	-4.43899e-006	0	0.00200267
   234	-4.38801e-006	0	0.00198884
   235	-4.33728e-006	0	0.0019751
   236	-4.28679e-006	0	0.00196146
   237	-4.23651e-006	0	0.00194791
   238	-4.18646e-006	0	0.00193446
   239	-4.13661e-006	0	0.00192109
   240	-4.08698e-006	0	0.00190782
   241	-4.03753e-006	0	0.00189465
   242	-3.98824e-006	0	0.00188156
   243	-3.93914e-006	0	0.00186856
   244	-3.89019e-006	0	0.00185565
   245	-3.84143e-006	0	0.00184284
   246	-3.7928e-006	0	0.00183011
   247	-3.74435e-006	0	0.00181747
   248	-3.69604e-006	0	0.00180491
   249	-3.64788e-006	0	0.00179244
   250	-3.59987e-006	0	0.00178006
   251	-3.55199e-006	0	0.00176777
   252	-3.50426e-006	0	0.00175556
   253	-3.4566e-006	0	0.00174343
   254	-3.40906e-006	0	0.00173139
   255	-3.3616e-006	0	0.00171943
   256	-3.31421e-006	0	0.00170755
   257	-3.26693e-006	0	0.00169576
   258	-3.21967e-006	0	0.00168404
   259	-3.17248e-006	0	0.00167241
   260	-3.12536e-006	0	0.00166086
   261	-3.07824e-006	0	0.00164938
   262	-3.03118e-006	0	0.00163799
   263	-2.98414e-006	0	0.00162668
   264	-2.9371e-006	0	0.00161544
   265	-2.8901e-006	0	0.00160428
   266	-2.84313e-006	0	0.0015932
   267	-2.79612e-006	0	0.0015822
   268	-2.74909e-006	0	0.00157127
   269	-2.70204e-006	0	0.00156041
   270	-2.65499e-006	0	0.00154963
   271	-2.60791e-006	0	0.00153893
   272	-2.5608e-006	0	0.0015283
   273	-2.51362e-006	0	0.00151774
   274	-2.46634e-006	0	0.00150726
   275	-2.41906e-006	0	0.00149685
   276	-2.37166e-006	0	0.00148651
   277	-2.32429e-006	0	0.00147624
   278	-2.27675e-006	0	0.00146604
   279	-2.22911e-006	0	0.00145592
   280	-2.1814e-006	0	0.00144586
   281	-2.13354e-006	0	0.00143587
   282	-2.08555e-006	0	0.00142595
   283	-2.03753e-006	0	0.0014161
   284	-1.98928e-006	0	0.00140632
   285	-1.94094e-006	0	0.00139661
   286	-1.89241e-006	0	0.00138696
   287	-1.84377e-006	0	0.00137738
   288	-1.79485e-006	0	0.00136787
   289	-1.74588e-006	0	0.00135842
   290	-1.69675e-006	0	0.00134904
   291	-1.64734e-006	0	0.00133972
   292	-1.59772e-006	0	0.00133046
   293	-1.54797e-006	0	0.00132127
   294	-1.49798e-006	0	0.00131215
   295	-1.44781e-006	0	0.00130308
   296	-1.39739e-006	0	0.00129408
   297	-1.34672e-006	0	0.00128514
   298	-1.29581e-006	0	0.00127627
   299	-1.24465e-006	0	0.00126745
   300	-1.19322e-006	0	0.00125869
   301	-1.1415e-006	0	0.00125

Measurement: gainmag
  step	20*log10(hypot(are,aim)/hypot(bre,bim))
     1	27.5723
     2	27.6337
     3	27.6951
     4	27.7567
     5	27.8184
     6	27.8801
     7	27.942
     8	28.0039
     9	28.066
    10	28.1281
    11	28.1903
    12	28.2527
    13	28.3151
    14	28.3777
    15	28.4403
    16	28.503
    17	28.5658
    18	28.6288
    19	28.6917
    20	28.755
    21	28.8182
    22	28.8816
    23	28.945
    24	29.0086
    25	29.0723
    26	29.1361
    27	29.2
    28	29.264
    29	29.3281
    30	29.3923
    31	29.4566
    32	29.521
    33	29.5856
    34	29.6503
    35	29.7151
    36	29.78
    37	29.845
    38	29.9101
    39	29.9754
    40	30.0408
    41	30.1063
    42	30.172
    43	30.2378
    44	30.3037
    45	30.3697
    46	30.4359
    47	30.5022
    48	30.5686
    49	30.6352
    50	30.7019
    51	30.7688
    52	30.8357
    53	30.9029
    54	30.9702
    55	31.0376
    56	31.1052
    57	31.1729
    58	31.2408
    59	31.3088
    60	31.3769
    61	31.4452
    62	31.5137
    63	31.5823
    64	31.6511
    65	31.7201
    66	31.7893
    67	31.8586
    68	31.9281
    69	31.9977
    70	32.0676
    71	32.1376
    72	32.2078
    73	32.2782
    74	32.3487
    75	32.4195
    76	32.4904
    77	32.5615
    78	32.6329
    79	32.7044
    80	32.7761
    81	32.8481
    82	32.9202
    83	32.9926
    84	33.0652
    85	33.1379
    86	33.211
    87	33.2842
    88	33.3576
    89	33.4313
    90	33.5052
    91	33.5794
    92	33.6539
    93	33.7286
    94	33.8035
    95	33.8787
    96	33.9542
    97	34.0299
    98	34.1059
    99	34.1821
   100	34.2587
   101	34.3355
   102	34.4126
   103	34.49
   104	34.5677
   105	34.6457
   106	34.7241
   107	34.8027
   108	34.8816
   109	34.9609
   110	35.0405
   111	35.1204
   112	35.2007
   113	35.2813
   114	35.3623
   115	35.4437
   116	35.5253
   117	35.6075
   118	35.6899
   119	35.7727
   120	35.856
   121	35.9397
   122	36.0237
   123	36.1082
   124	36.1931
   125	36.2785
   126	36.3643
   127	36.4505
   128	36.5372
   129	36.6243
   130	36.7119
   131	36.8
   132	36.8886
   133	36.9777
   134	37.0674
   135	37.1575
   136	37.2481
   137	37.3394
   138	37.4312
   139	37.5236
   140	37.6166
   141	37.7102
   142	37.8043
   143	37.8992
   144	37.9946
   145	38.0907
   146	38.1875
   147	38.285
   148	38.3831
   149	38.482
   150	38.5816
   151	38.6819
   152	38.7829
   153	38.8848
   154	38.9875
   155	39.091
   156	39.1953
   157	39.3005
   158	39.4065
   159	39.5135
   160	39.6213
   161	39.7302
   162	39.8399
   163	39.9507
   164	40.0625
   165	40.1753
   166	40.2891
   167	40.4041
   168	40.5202
   169	40.6375
   170	40.7559
   171	40.8756
   172	40.9966
   173	41.1188
   174	41.2424
   175	41.3673
   176	41.4936
   177	41.6214
   178	41.7506
   179	41.8814
   180	42.0137
   181	42.1476
   182	42.2832
   183	42.4205
   184	42.5596
   185	42.7005
   186	42.8433
   187	42.9881
   188	43.1349
   189	43.2838
   190	43.4349
   191	43.5881
   192	43.7438
   193	43.9018
   194	44.0623
   195	44.2253
   196	44.391
   197	44.5594
   198	44.7308
   199	44.9051
   200	45.0824
   201	45.2631
   202	45.4471
   203	45.6346
   204	45.8258
   205	46.0208
   206	46.2197
   207	46.4228
   208	46.6302
   209	46.8422
   210	47.0588
   211	47.2804
   212	47.5074
   213	47.7398
   214	47.978
   215	48.2223
   216	48.4729
   217	48.7303
   218	48.9948
   219	49.2667
   220	49.5467
   221	49.8352
   222	50.1326
   223	50.4396
   224	50.7566
   225	51.0843
   226	51.4236
   227	51.7752
   228	52.14
   229	52.5187
   230	52.9124
   231	53.322
   232	53.749
   233	54.1943
   234	54.6593
   235	55.1451
   236	55.653
   237	56.1841
   238	56.7391
   239	57.3185
   240	57.9215
   241	58.5462
   242	59.1883
   243	59.84
   244	60.4884
   245	61.1138
   246	61.6881
   247	62.1745
   248	62.5315
   249	62.7212
   250	62.7203
   251	62.5289
   252	62.1704
   253	61.683
   254	61.1081
   255	60.4822
   256	59.8336
   257	59.1819
   258	58.5399
   259	57.9152
   260	57.3123
   261	56.7331
   262	56.1781
   263	55.6471
   264	55.1393
   265	54.6536
   266	54.1886
   267	53.7433
   268	53.3164
   269	52.9067
   270	52.5129
   271	52.1342
   272	51.7695
   273	51.4179
   274	51.0786
   275	50.7507
   276	50.4336
   277	50.1267
   278	49.8293
   279	49.5407
   280	49.2606
   281	48.9885
   282	48.724
   283	48.4665
   284	48.2159
   285	47.9717
   286	47.7336
   287	47.5012
   288	47.2743
   289	47.0526
   290	46.8359
   291	46.624
   292	46.4166
   293	46.2135
   294	46.0147
   295	45.8198
   296	45.6286
   297	45.4411
   298	45.257
   299	45.0763
   300	44.8988
   301	44.7245

Measurement: gainphi
  step	mod(atan2(aim,are)-atan2(bim,bre)+180,360)-180
     1	75.4706
     2	75.5501
     3	75.6289
     4	75.7071
     5	75.7849
     6	75.8621
     7	75.9387
     8	76.0149
     9	76.0905
    10	76.1655
    11	76.24
    12	76.3141
    13	76.3875
    14	76.4605
    15	76.533
    16	76.6046
    17	76.6761
    18	76.7471
    19	76.8173
    20	76.8873
    21	76.9566
    22	77.0255
    23	77.0938
    24	77.1616
    25	77.2288
    26	77.2957
    27	77.362
    28	77.4278
    29	77.4932
    30	77.558
    31	77.6224
    32	77.6861
    33	77.7494
    34	77.8123
    35	77.8748
    36	77.9366
    37	77.998
    38	78.0587
    39	78.1191
    40	78.179
    41	78.2385
    42	78.2977
    43	78.3562
    44	78.4139
    45	78.4714
    46	78.5285
    47	78.5851
    48	78.6413
    49	78.6969
    50	78.7521
    51	78.8068
    52	78.8611
    53	78.915
    54	78.9683
    55	79.0212
    56	79.0736
    57	79.1255
    58	79.1768
    59	79.2279
    60	79.2784
    61	79.3285
    62	79.3781
    63	79.4274
    64	79.4759
    65	79.5242
    66	79.572
    67	79.6193
    68	79.6662
    69	79.7126
    70	79.7586
    71	79.8041
    72	79.8492
    73	79.8938
    74	79.938
    75	79.9818
    76	80.0251
    77	80.0679
    78	80.1102
    79	80.1521
    80	80.1933
    81	80.2342
    82	80.2747
    83	80.3148
    84	80.3543
    85	80.3935
    86	80.4321
    87	80.4703
    88	80.508
    89	80.5452
    90	80.582
    91	80.6185
    92	80.6543
    93	80.6894
    94	80.7243
    95	80.7589
    96	80.7928
    97	80.8263
    98	80.8593
    99	80.8918
   100	80.9239
   101	80.9555
   102	80.9864
   103	81.0172
   104	81.0471
   105	81.0767
   106	81.1058
   107	81.1344
   108	81.1625
   109	81.19
   110	81.217
   111	81.2434
   112	81.2696
   113	81.2949
   114	81.3201
   115	81.3446
   116	81.3688
   117	81.3918
   118	81.4147
   119	81.4367
   120	81.4587
   121	81.4799
   122	81.5004
   123	81.5204
   124	81.5398
   125	81.5586
   126	81.5768
   127	81.5944
   128	81.6114
   129	81.6277
   130	81.6434
   131	81.6585
   132	81.6729
   133	81.6867
   134	81.6998
   135	81.7121
   136	81.7238
   137	81.7349
   138	81.7451
   139	81.7547
   140	81.7635
   141	81.7716
   142	81.7789
   143	81.7855
   144	81.7913
   145	81.7962
   146	81.8004
   147	81.8037
   148	81.8061
   149	81.8076
   150	81.8081
   151	81.8078
   152	81.8064
   153	81.8041
   154	81.8009
   155	81.7966
   156	81.7912
   157	81.7848
   158	81.7774
   159	81.7687
   160	81.7591
   161	81.7482
   162	81.7361
   163	81.7227
   164	81.708
   165	81.6919
   166	81.6744
   167	81.6555
   168	81.635
   169	81.6132
   170	81.5897
   171	81.5648
   172	81.5381
   173	81.5096
   174	81.4793
   175	81.4473
   176	81.4132
   177	81.3772
   178	81.3391
   179	81.2988
   180	81.2563
   181	81.2113
   182	81.164
   183	81.1142
   184	81.0618
   185	81.0066
   186	80.9485
   187	80.8873
   188	80.823
   189	80.7554
   190	80.6844
   191	80.61
   192	80.5313
   193	80.4489
   194	80.3624
   195	80.2715
   196	80.1756
   197	80.075
   198	79.9692
   199	79.858
   200	79.7411
   201	79.6177
   202	79.4881
   203	79.3516
   204	79.2072
   205	79.0555
   206	78.8955
   207	78.7264
   208	78.5477
   209	78.3586
   210	78.1591
   211	77.9473
   212	77.7232
   213	77.4851
   214	77.2324
   215	76.9634
   216	76.6775
   217	76.3727
   218	76.0468
   219	75.6993
   220	75.3265
   221	74.9272
   222	74.4979
   223	74.0359
   224	73.5375
   225	72.9984
   226	72.4144
   227	71.7799
   228	71.0887
   229	70.3331
   230	69.5049
   231	68.594
   232	67.5885
   233	66.4739
   234	65.2332
   235	63.8462
   236	62.2877
   237	60.5278
   238	58.5299
   239	56.2498
   240	53.6327
   241	50.6143
   242	47.1179
   243	43.0548
   244	38.3305
   245	32.854
   246	26.5597
   247	19.4406
   248	11.5886
   249	3.22128
   250	-5.33195
   251	-13.696
   252	-21.5419
   253	-28.6537
   254	-34.9403
   255	-40.4098
   256	-45.1275
   257	-49.1845
   258	-52.6764
   259	-55.6904
   260	-58.3034
   261	-60.5808
   262	-62.5758
   263	-64.3334
   264	-65.8902
   265	-67.2755
   266	-68.5144
   267	-69.6277
   268	-70.6321
   269	-71.542
   270	-72.3691
   271	-73.1234
   272	-73.8136
   273	-74.4473
   274	-75.0308
   275	-75.5687
   276	-76.0667
   277	-76.5273
   278	-76.9559
   279	-77.3547
   280	-77.7265
   281	-78.0738
   282	-78.3987
   283	-78.7026
   284	-78.9881
   285	-79.2561
   286	-79.5082
   287	-79.7453
   288	-79.9695
   289	-80.1802
   290	-80.3791
   291	-80.5675
   292	-80.7457
   293	-80.9141
   294	-81.0736
   295	-81.2246
   296	-81.3678
   297	-81.5037
   298	-81.6326
   299	-81.7549
   300	-81.8711
   301	-81.9817


Date: Fri Nov 06 02:50:25 2015
Total elapsed time: 20.207 seconds.

tnom = 27
temp = 27
method = modified trap
totiter = 2094
traniter = 2094
tranpoints = 1048
accept = 1048
rejected = 0
matrix size = 5
fillins = 1
solver = Normal
Matrix Compiler1: 222 bytes object code size  0.3/0.2/[0.2]
Matrix Compiler2: 363 bytes object code size  0.2/0.2/[0.2]


