Circuit: * Z:\home\koblitz\Simulationsbeispiele_WS14\get1\ersatz_2.asc

Direct Newton iteration for .op point succeeded.

Date: Wed Dec 17 11:36:32 2014
Total elapsed time: 0.048 seconds.

tnom = 27
temp = 27
method = trap
totiter = 3
traniter = 0
tranpoints = 0
accept = 0
rejected = 0
matrix size = 5
fillins = 0
solver = Normal
Matrix Compiler1: 150 Bytes object code size
Matrix Compiler2: 321 Bytes object code size

