Circuit: * Z:\home\mainster\CODES_local\LTSpice_projects\Amp_plus_ADC_noise.asc

Direct Newton iteration failed to find .op point.  (Use ".option noopiter" to skip.)
Starting Gmin stepping
Gmin = 10
Gmin = 1.07374
Gmin = 0.115292
Gmin = 0.0123794
Gmin = 0.00132923
Gmin = 0.000142725
Gmin = 1.5325e-005
Gmin = 1.6455e-006
Gmin = 1.76685e-007
Gmin = 1.89714e-008
vernier = 0.5
vernier = 0.25
vernier = 0.125
vernier = 0.0625
Gmin = 1.42843e-008
vernier = 0.0833333
Gmin = 1.19239e-008
vernier = 0.111111
vernier = 0.148148
Gmin = 8.88558e-009
vernier = 0.197531
vernier = 0.263374
Gmin = 5.59766e-009
vernier = 0.351165
Gmin = 2.67184e-009
vernier = 0.46822
vernier = 0.624294
Gmin = 8.18204e-010
vernier = 0.832392
vernier = 1
Gmin = 1.36264e-010
Gmin = 1.46313e-011
Gmin = 1.57102e-012
Gmin = 1.68687e-013
Gmin = 0
Gmin stepping succeeded in finding the operating point.

.step cap=1e-009
.step cap=4.7e-010

Date: Fri Jun 12 00:58:48 2015
Total elapsed time: 24.928 seconds.

tnom = 27
temp = 27
method = modified trap
totiter = 478043
traniter = 476996
tranpoints = 228629
accept = 172223
rejected = 56406
matrix size = 31
fillins = 55
solver = Normal
Thread vector: 14.2/8.9[3] 6.1/3.3[3] 1.6/2.0[1] 0.4/1.2[1]  2592/500
Matrix Compiler1: 4.39 KB object code size  1.8/1.1/[0.5]
Matrix Compiler2: 3.79 KB object code size  0.8/1.0/[0.7]


