Questionable use of curly braces in "b1 vd2_open 0  v={{n}*{vt}*ln(i(l2)/{isd2})}"
    Error: undefined symbol in: "(n)*(vt)*ln([i](l2)/(isd2))"
Circuit: * Z:\home\mainster\CODES_local\LTSpice_projects\Buckconverter_eas_skript.asc

R3: both pins shorted together -- ignoring.
WARNING: Less than two connections to node N001.  This node is used by V3.
WARNING: Less than two connections to node VD2_OPEN.  This node is used by B1.
Direct Newton iteration for .op point succeeded.

Date: Sat Jul 11 22:38:48 2015
Total elapsed time: 0.170 seconds.

tnom = 27
temp = 27
method = modified trap
totiter = 50681
traniter = 50669
tranpoints = 23712
accept = 15802
rejected = 7910
matrix size = 14
fillins = 0
solver = Normal
Matrix Compiler1: 410 bytes object code size  0.4/0.3/[0.2]
Matrix Compiler2: 794 bytes object code size  0.3/0.3/[0.3]


