Questionable use of curly braces in "b1 0 e1  i={{gm}*(v(b1)-v(e1))}"
    Error: undefined symbol in: "(gm)*([v](b1)-v(e1))"
Circuit: * Z:\home\mainster\CODES_local\LTSpice_projects\collpits_oscillator_v1.asc

Warning: Multiple definitions of model "bc846b" Type: BJT
Warning: Multiple definitions of model "bc857a" Type: BJT
Warning: Multiple definitions of model "bc847b" Type: BJT
Warning: Multiple definitions of model "bcw68f" Type: BJT
Warning: Multiple definitions of model "bcw60c" Type: BJT
Warning: Multiple definitions of model "ztx1048a" Type: BJT
Warning: Multiple definitions of model "ztx849" Type: BJT
Direct Newton iteration for .op point succeeded.

Date: Wed Dec 03 00:17:43 2014
Total elapsed time: 1.590 seconds.

tnom = 27
temp = 27
method = modified trap
totiter = 277105
traniter = 277099
tranpoints = 89247
accept = 61735
rejected = 27512
matrix size = 12
fillins = 4
solver = Normal
Matrix Compiler1: 802 bytes object code size  0.6/0.3/[0.3]
Matrix Compiler2: 968 bytes object code size  0.4/0.4/[0.3]


