Circuit: * Z:\home\mainster\CODES_local\LTSpice_projects\delay.asc

WARNING: Less than two connections to node N001.  This node is used by B1.
.OP point found by inspection.

Date: Tue Feb 10 23:25:10 2015
Total elapsed time: 0.124 seconds.

tnom = 27
temp = 27
method = modified trap
totiter = 2082
traniter = 2082
tranpoints = 1042
accept = 1042
rejected = 0
matrix size = 4
fillins = 0
solver = Normal
Matrix Compiler1: 64 bytes object code size  0.3/0.2/[0.2]
Matrix Compiler2: 174 bytes object code size  0.2/0.3/[0.2]


