Circuit: * Z:\home\mainster\CODES_local\LTSpice_projects\Draft1.asc

.OP point found by inspection.

Date: Tue Jul 14 01:42:29 2015
Total elapsed time: 0.075 seconds.

tnom = 27
temp = 27
method = modified trap
totiter = 2126
traniter = 2126
tranpoints = 1064
accept = 1062
rejected = 2
matrix size = 4
fillins = 0
solver = Normal
Matrix Compiler1: 82 bytes object code size  0.2/0.2/[0.1]
Matrix Compiler2: 248 bytes object code size  0.2/0.2/[0.1]


