Circuit: * Z:\home\mainster\CODES_local\LTSpice_projects\Draft4.asc

Warning: Multiple definitions of model "sub704" Type: BJT
Warning: Multiple definitions of model "sub605" Type: BJT
Warning: Multiple definitions of model "n3306d" Type: Diode
Warning: Multiple definitions of model "diode1" Type: Diode
WARNING: Less than two connections to node N005.  This node is used by R3.
WARNING: Less than two connections to node N006.  This node is used by R4.
WARNING: Less than two connections to node IN+B.  This node is used by R5.
WARNING: Less than two connections to node IN-B.  This node is used by R6.
Direct Newton iteration failed to find .op point.  (Use ".option noopiter" to skip.)
Starting Gmin stepping
Gmin = 10
Gmin = 1.07374
Gmin = 0.115292
Gmin = 0.0123794
Gmin = 0.00132923
Gmin = 0.000142725
Gmin = 1.5325e-005
Gmin = 1.6455e-006
Gmin = 1.76685e-007
Gmin = 1.89714e-008
Gmin = 2.03704e-009
Gmin = 2.18725e-010
Gmin = 2.34854e-011
Gmin = 2.52173e-012
Gmin = 2.70769e-013
Gmin = 0
Gmin stepping succeeded in finding the operating point.


Date: Wed Jun 17 21:22:18 2015
Total elapsed time: 0.132 seconds.

tnom = 27
temp = 27
method = modified trap
totiter = 2602
traniter = 2082
tranpoints = 1042
accept = 1042
rejected = 0
matrix size = 29
fillins = 28
solver = Normal
Matrix Compiler1: 3.38 KB object code size  1.4/0.7/[0.4]
Matrix Compiler2: 2.90 KB object code size  1.0/1.1/[0.9]


