Questionable use of curly braces in "b1 re 0  v={{alp}*{vt}/ic(q2)}"
    Error: undefined symbol in: "(alp)*(vt)/[ic](q2)"
Questionable use of curly braces in "b2 rpi 0  v={{bet}*{vt}/ic(q2)}"
    Error: undefined symbol in: "(bet)*(vt)/[ic](q2)"
Circuit: * Z:\home\mainster\CODES_local\LTSpice_projects\emitterschaltung_mit_spannungsgegKopplung_cariable_zener.asc

Warning: Multiple definitions of model "ca3046" Type: BJT
WARNING: Less than two connections to node VIN-C.  This node is used by E1.
WARNING: Less than two connections to node VCE.  This node is used by VCE.
WARNING: Less than two connections to node NC_01.  This node is used by RPI.
WARNING: Less than two connections to node NC_02.  This node is used by RPI1.
WARNING: Less than two connections to node RE.  This node is used by B1.
WARNING: Less than two connections to node RPI.  This node is used by B2.
WARNING: Less than two connections to node NC_03.  This node is used by V1.
Direct Newton iteration for .op point succeeded.

Date: Sat Aug 08 05:56:21 2015
Total elapsed time: 0.099 seconds.

tnom = 27
temp = 27
method = modified trap
totiter = 2103
traniter = 2098
tranpoints = 1050
accept = 1050
rejected = 0
matrix size = 32
fillins = 0
solver = Normal
Matrix Compiler1: 1.15 KB object code size  0.7/0.4/[0.3]
Matrix Compiler2: 1.88 KB object code size  0.4/0.7/[0.3]


