Circuit: * Z:\home\mainster\CODES_local\LTSpice_projects\measure_ac_parameters.asc


tmp: MAX(mag(v(out)))=(-0.000171449dB,0°) FROM 1 TO 100000
bw=136.461 FROM 22.7007 TO 159.162


Date: Tue Jan 06 09:05:33 2015
Total elapsed time: 0.023 seconds.

tnom = 27
temp = 27
method = trap
totiter = 0
traniter = 0
tranpoints = 0
accept = 0
rejected = 0
matrix size = 7
fillins = 2
solver = Normal

