Circuit: * Z:\home\mainster\CODES_local\LTSpice_projects\Measure_vi.asc

Per .tran options, skipping operating point for transient analysis.

vi: v(exponential_a)=0.630708 at 0.001


Date: Sun Dec 07 04:40:22 2014
Total elapsed time: 0.015 seconds.

tnom = 27
temp = 27
method = modified trap
totiter = 241
traniter = 241
tranpoints = 121
accept = 121
rejected = 0
matrix size = 6
fillins = 0
solver = Normal
Matrix Compiler1: 146 bytes object code size  0.3/0.2/[0.2]
Matrix Compiler2: 326 bytes object code size  0.2/0.2/[0.2]


