Circuit: * Z:\home\mainster\CODES_local\LTSpice_projects\mosfet_overview_koblitz.asc

WARNING: Less than two connections to node CO.  This node is used by V4.
WARNING: Less than two connections to node N001.  This node is used by V5.
Direct Newton iteration for .op point succeeded.

Date: Thu Jul 30 21:28:56 2015
Total elapsed time: 0.149 seconds.

tnom = 27
temp = 27
method = modified trap
totiter = 8305
traniter = 8286
tranpoints = 3884
accept = 2419
rejected = 1465
matrix size = 20
fillins = 0
solver = Normal
Matrix Compiler1: 594 bytes object code size  0.4/0.3/[0.2]
Matrix Compiler2: off  [0.3]/0.4/0.3


