Circuit: * Z:\home\mainster\CODES_local\LTSpice_projects\noiseGenDiscretCont.asc

WARNING: Less than two connections to node NOISEBIN.  This node is used by B2.
Direct Newton iteration for .op point succeeded.

Date: Thu Jun 11 16:22:55 2015
Total elapsed time: 0.026 seconds.

tnom = 27
temp = 27
method = modified trap
totiter = 2135
traniter = 2132
tranpoints = 1042
accept = 1042
rejected = 0
matrix size = 10
fillins = 0
solver = Normal
Matrix Compiler1:      14 opcodes  0.2/[0.2]/0.2
Matrix Compiler2: 544 bytes object code size  0.2/0.2/[0.2]


