Circuit: * Z:\home\mainster\CODES_local\LTSpice_projects\op_macromodel_koblitz.asc

Direct Newton iteration for .op point succeeded.

Date: Fri Feb 13 23:38:25 2015
Total elapsed time: 0.070 seconds.

tnom = 27
temp = 27
method = modified trap
totiter = 2085
traniter = 2082
tranpoints = 1042
accept = 1042
rejected = 0
matrix size = 12
fillins = 2
solver = Normal
Matrix Compiler1: 504 bytes object code size  0.6/0.4/[0.4]
Matrix Compiler2: 968 bytes object code size  0.5/0.6/[0.4]


