Questionable use of curly braces in "b1 a 0  i=table({i(e2)/{ilim}},-51,5k,-1,0,1,0,51,-5k)"
    Error: undefined symbol in: "[i](e2)/(ilim)"
Circuit: * Z:\home\mainster\CODES_local\LTSpice_projects\op_macromodel_koblitz_beta.asc


Date: Fri Feb 13 18:27:30 2015
Total elapsed time: 0.779 seconds.

tnom = 27
temp = 27
method = trap
totiter = 80047
traniter = 0
tranpoints = 0
accept = 0
rejected = 0
matrix size = 16
fillins = 2
solver = Normal
Matrix Compiler1: 520 bytes object code size  0.6/0.4/[0.3]
Matrix Compiler2: 1,03 KB object code size  0.5/0.6/[0.4]


