Circuit: * Z:\home\mainster\CODES_local\LTSpice_projects\ortskurve_parallelschwingkreis.asc

.OP point found by inspection.
.step freq=1000 rl2=0.001
.step freq=1071.77 rl2=0.001
.step freq=1148.7 rl2=0.001
.step freq=1231.14 rl2=0.001
.step freq=1319.51 rl2=0.001
.step freq=1414.21 rl2=0.001
.step freq=1515.72 rl2=0.001
.step freq=1624.5 rl2=0.001
.step freq=1741.1 rl2=0.001
.step freq=1866.07 rl2=0.001
.step freq=2000 rl2=0.001
.step freq=2143.55 rl2=0.001
.step freq=2297.4 rl2=0.001
.step freq=2462.29 rl2=0.001
.step freq=2639.02 rl2=0.001
.step freq=2828.43 rl2=0.001
.step freq=3031.43 rl2=0.001
.step freq=3249.01 rl2=0.001
.step freq=3482.2 rl2=0.001
.step freq=3732.13 rl2=0.001
.step freq=4000 rl2=0.001
.step freq=4287.09 rl2=0.001
.step freq=4594.79 rl2=0.001
.step freq=4924.58 rl2=0.001
.step freq=5278.03 rl2=0.001
.step freq=5656.85 rl2=0.001
.step freq=6062.87 rl2=0.001
.step freq=6498.02 rl2=0.001
.step freq=6964.4 rl2=0.001
.step freq=7464.26 rl2=0.001
.step freq=8000 rl2=0.001
.step freq=1000 rl2=10
.step freq=1071.77 rl2=10
.step freq=1148.7 rl2=10
.step freq=1231.14 rl2=10
.step freq=1319.51 rl2=10
.step freq=1414.21 rl2=10
.step freq=1515.72 rl2=10
.step freq=1624.5 rl2=10
.step freq=1741.1 rl2=10
.step freq=1866.07 rl2=10
.step freq=2000 rl2=10
.step freq=2143.55 rl2=10
.step freq=2297.4 rl2=10
.step freq=2462.29 rl2=10
.step freq=2639.02 rl2=10
.step freq=2828.43 rl2=10
.step freq=3031.43 rl2=10
.step freq=3249.01 rl2=10
.step freq=3482.2 rl2=10
.step freq=3732.13 rl2=10
.step freq=4000 rl2=10
.step freq=4287.09 rl2=10
.step freq=4594.79 rl2=10
.step freq=4924.58 rl2=10
.step freq=5278.03 rl2=10
.step freq=5656.85 rl2=10
.step freq=6062.87 rl2=10
.step freq=6498.02 rl2=10
.step freq=6964.4 rl2=10
.step freq=7464.26 rl2=10
.step freq=8000 rl2=10
.step freq=1000 rl2=20
.step freq=1071.77 rl2=20
.step freq=1148.7 rl2=20
.step freq=1231.14 rl2=20
.step freq=1319.51 rl2=20
.step freq=1414.21 rl2=20
.step freq=1515.72 rl2=20
.step freq=1624.5 rl2=20
.step freq=1741.1 rl2=20
.step freq=1866.07 rl2=20
.step freq=2000 rl2=20
.step freq=2143.55 rl2=20
.step freq=2297.4 rl2=20
.step freq=2462.29 rl2=20
.step freq=2639.02 rl2=20
.step freq=2828.43 rl2=20
.step freq=3031.43 rl2=20
.step freq=3249.01 rl2=20
.step freq=3482.2 rl2=20
.step freq=3732.13 rl2=20
.step freq=4000 rl2=20
.step freq=4287.09 rl2=20
.step freq=4594.79 rl2=20
.step freq=4924.58 rl2=20
.step freq=5278.03 rl2=20
.step freq=5656.85 rl2=20
.step freq=6062.87 rl2=20
.step freq=6498.02 rl2=20
.step freq=6964.4 rl2=20
.step freq=7464.26 rl2=20
.step freq=8000 rl2=20
.step freq=1000 rl2=30
.step freq=1071.77 rl2=30
.step freq=1148.7 rl2=30
.step freq=1231.14 rl2=30
.step freq=1319.51 rl2=30
.step freq=1414.21 rl2=30
.step freq=1515.72 rl2=30
.step freq=1624.5 rl2=30
.step freq=1741.1 rl2=30
.step freq=1866.07 rl2=30
.step freq=2000 rl2=30
.step freq=2143.55 rl2=30
.step freq=2297.4 rl2=30
.step freq=2462.29 rl2=30
.step freq=2639.02 rl2=30
.step freq=2828.43 rl2=30
.step freq=3031.43 rl2=30
.step freq=3249.01 rl2=30
.step freq=3482.2 rl2=30
.step freq=3732.13 rl2=30
.step freq=4000 rl2=30
.step freq=4287.09 rl2=30
.step freq=4594.79 rl2=30
.step freq=4924.58 rl2=30
.step freq=5278.03 rl2=30
.step freq=5656.85 rl2=30
.step freq=6062.87 rl2=30
.step freq=6498.02 rl2=30
.step freq=6964.4 rl2=30
.step freq=7464.26 rl2=30
.step freq=8000 rl2=30


Measurement: aavg
  step	AVG(v(a))	FROM	TO
     1	-4.17794e-008	0	0.01
     2	-7.53612e-010	0	0.00933033
     3	-1.55144e-008	0	0.00870551
     4	-3.39731e-008	0	0.00812252
     5	-3.53096e-008	0	0.00757858
     6	-2.61719e-008	0	0.00707107
     7	-2.16752e-008	0	0.00659754
     8	-4.53615e-008	0	0.00615572
     9	-4.09984e-008	0	0.00574349
    10	-2.06038e-008	0	0.00535887
    11	-3.72085e-008	0	0.005
    12	-1.59285e-008	0	0.00466516
    13	-4.75089e-008	0	0.00435275
    14	-2.96687e-008	0	0.00406126
    15	-6.16145e-008	0	0.00378929
    16	-4.03822e-008	0	0.00353553
    17	-5.25209e-008	0	0.00329877
    18	-5.5959e-008	0	0.00307786
    19	1.12148e-008	0	0.00287175
    20	-1.80342e-008	0	0.00267943
    21	-1.12303e-008	0	0.0025
    22	-7.8834e-008	0	0.00233258
    23	-6.65516e-008	0	0.00217638
    24	-9.34253e-008	0	0.00203063
    25	-1.82344e-007	0	0.00189465
    26	-7.86389e-007	0	0.00176777
    27	-1.27273e-006	0	0.00164938
    28	-8.2165e-007	0	0.00153893
    29	-5.97062e-007	0	0.00143587
    30	-4.74767e-007	0	0.00133972
    31	-4.20622e-007	0	0.00125
    32	1.96266e-008	0	0.01
    33	2.02433e-008	0	0.00933033
    34	2.08714e-008	0	0.00870551
    35	2.15095e-008	0	0.00812252
    36	2.22334e-008	0	0.00757858
    37	2.3016e-008	0	0.00707107
    38	2.38514e-008	0	0.00659754
    39	2.53431e-008	0	0.00615572
    40	1.57116e-008	0	0.00574349
    41	1.75495e-008	0	0.00535887
    42	4.07352e-009	0	0.005
    43	1.6698e-008	0	0.00466516
    44	1.75331e-008	0	0.00435275
    45	3.48777e-009	0	0.00406126
    46	3.49731e-009	0	0.00378929
    47	-1.11689e-008	0	0.00353553
    48	-1.29642e-008	0	0.00329877
    49	-1.42592e-008	0	0.00307786
    50	-2.61444e-008	0	0.00287175
    51	-1.73899e-008	0	0.00267943
    52	-2.02625e-008	0	0.0025
    53	-3.58975e-008	0	0.00233258
    54	-7.2203e-008	0	0.00217638
    55	-1.87213e-007	0	0.00203063
    56	-1.89619e-007	0	0.00189465
    57	-2.2113e-007	0	0.00176777
    58	-2.12789e-007	0	0.00164938
    59	-1.40042e-007	0	0.00153893
    60	-1.36314e-007	0	0.00143587
    61	-1.3002e-007	0	0.00133972
    62	-1.13154e-007	0	0.00125
    63	9.99931e-009	0	0.01
    64	1.06365e-008	0	0.00933033
    65	1.11564e-008	0	0.00870551
    66	1.17216e-008	0	0.00812252
    67	1.23368e-008	0	0.00757858
    68	1.29948e-008	0	0.00707107
    69	2.62336e-008	0	0.00659754
    70	1.4746e-008	0	0.00615572
    71	1.6437e-008	0	0.00574349
    72	1.73016e-008	0	0.00535887
    73	3.07658e-008	0	0.005
    74	3.16383e-008	0	0.00466516
    75	3.26204e-008	0	0.00435275
    76	3.35716e-008	0	0.00406126
    77	2.1972e-008	0	0.00378929
    78	3.55768e-008	0	0.00353553
    79	3.65743e-008	0	0.00329877
    80	3.32398e-008	0	0.00307786
    81	2.04128e-008	0	0.00287175
    82	2.1459e-008	0	0.00267943
    83	1.9816e-008	0	0.0025
    84	6.31207e-009	0	0.00233258
    85	-3.38433e-009	0	0.00217638
    86	2.57454e-009	0	0.00203063
    87	-5.08571e-009	0	0.00189465
    88	-2.93002e-008	0	0.00176777
    89	-2.45522e-008	0	0.00164938
    90	-1.00468e-008	0	0.00153893
    91	-5.06971e-009	0	0.00143587
    92	-8.94389e-009	0	0.00133972
    93	1.51435e-008	0	0.00125
    94	1.35887e-008	0	0.01
    95	1.42057e-008	0	0.00933033
    96	1.47981e-008	0	0.00870551
    97	1.53247e-008	0	0.00812252
    98	1.58469e-008	0	0.00757858
    99	1.64047e-008	0	0.00707107
   100	1.70512e-008	0	0.00659754
   101	1.82591e-008	0	0.00615572
   102	1.92455e-008	0	0.00574349
   103	1.9986e-008	0	0.00535887
   104	2.07318e-008	0	0.005
   105	2.15017e-008	0	0.00466516
   106	1.99262e-008	0	0.00435275
   107	2.08942e-008	0	0.00406126
   108	2.18839e-008	0	0.00378929
   109	2.28703e-008	0	0.00353553
   110	2.38845e-008	0	0.00329877
   111	2.60206e-008	0	0.00307786
   112	2.24555e-008	0	0.00287175
   113	2.99503e-008	0	0.00267943
   114	3.74073e-008	0	0.0025
   115	4.13523e-008	0	0.00233258
   116	3.51056e-008	0	0.00217638
   117	4.05522e-008	0	0.00203063
   118	5.37463e-008	0	0.00189465
   119	4.25048e-008	0	0.00176777
   120	5.59212e-008	0	0.00164938
   121	3.81884e-008	0	0.00153893
   122	5.51287e-008	0	0.00143587
   123	5.75654e-008	0	0.00133972
   124	5.82967e-008	0	0.00125

Measurement: bavg
  step	AVG(v(b))	FROM	TO
     1	1.55919e-005	0	0.01
     2	1.58241e-005	0	0.00933033
     3	1.60323e-005	0	0.00870551
     4	1.62177e-005	0	0.00812252
     5	1.63825e-005	0	0.00757858
     6	1.65283e-005	0	0.00707107
     7	1.66555e-005	0	0.00659754
     8	1.67706e-005	0	0.00615572
     9	1.68722e-005	0	0.00574349
    10	1.69618e-005	0	0.00535887
    11	1.704e-005	0	0.005
    12	1.71088e-005	0	0.00466516
    13	1.71685e-005	0	0.00435275
    14	1.72203e-005	0	0.00406126
    15	1.72643e-005	0	0.00378929
    16	1.73009e-005	0	0.00353553
    17	1.73321e-005	0	0.00329877
    18	1.73563e-005	0	0.00307786
    19	1.73726e-005	0	0.00287175
    20	1.73802e-005	0	0.00267943
    21	1.73797e-005	0	0.0025
    22	1.73676e-005	0	0.00233258
    23	1.73442e-005	0	0.00217638
    24	1.73062e-005	0	0.00203063
    25	1.72524e-005	0	0.00189465
    26	1.71806e-005	0	0.00176777
    27	1.70885e-005	0	0.00164938
    28	1.69731e-005	0	0.00153893
    29	1.68331e-005	0	0.00143587
    30	1.66674e-005	0	0.00133972
    31	1.64763e-005	0	0.00125
    32	6.64636e-007	0	0.01
    33	7.40214e-007	0	0.00933033
    34	8.21589e-007	0	0.00870551
    35	9.08593e-007	0	0.00812252
    36	1.00092e-006	0	0.00757858
    37	1.0981e-006	0	0.00707107
    38	1.19953e-006	0	0.00659754
    39	1.30437e-006	0	0.00615572
    40	1.4119e-006	0	0.00574349
    41	1.52123e-006	0	0.00535887
    42	1.63094e-006	0	0.005
    43	1.74045e-006	0	0.00466516
    44	1.84839e-006	0	0.00435275
    45	1.95375e-006	0	0.00406126
    46	2.05593e-006	0	0.00378929
    47	2.15374e-006	0	0.00353553
    48	2.24683e-006	0	0.00329877
    49	2.33462e-006	0	0.00307786
    50	2.41665e-006	0	0.00287175
    51	2.49286e-006	0	0.00267943
    52	2.56303e-006	0	0.0025
    53	2.62714e-006	0	0.00233258
    54	2.68533e-006	0	0.00217638
    55	2.73754e-006	0	0.00203063
    56	2.78501e-006	0	0.00189465
    57	2.82717e-006	0	0.00176777
    58	2.86442e-006	0	0.00164938
    59	2.89725e-006	0	0.00153893
    60	2.92546e-006	0	0.00143587
    61	2.9499e-006	0	0.00133972
    62	2.97075e-006	0	0.00125
    63	1.28092e-007	0	0.01
    64	1.45396e-007	0	0.00933033
    65	1.64789e-007	0	0.00870551
    66	1.86473e-007	0	0.00812252
    67	2.10638e-007	0	0.00757858
    68	2.37463e-007	0	0.00707107
    69	2.67166e-007	0	0.00659754
    70	2.99689e-007	0	0.00615572
    71	3.35357e-007	0	0.00574349
    72	3.74161e-007	0	0.00535887
    73	4.16161e-007	0	0.005
    74	4.61189e-007	0	0.00466516
    75	5.09174e-007	0	0.00435275
    76	5.59908e-007	0	0.00406126
    77	6.13015e-007	0	0.00378929
    78	6.68378e-007	0	0.00353553
    79	7.25308e-007	0	0.00329877
    80	7.83408e-007	0	0.00307786
    81	8.41954e-007	0	0.00287175
    82	9.00641e-007	0	0.00267943
    83	9.58777e-007	0	0.0025
    84	1.01567e-006	0	0.00233258
    85	1.07092e-006	0	0.00217638
    86	1.12407e-006	0	0.00203063
    87	1.17456e-006	0	0.00189465
    88	1.22203e-006	0	0.00176777
    89	1.26637e-006	0	0.00164938
    90	1.30748e-006	0	0.00153893
    91	1.3448e-006	0	0.00143587
    92	1.37851e-006	0	0.00133972
    93	1.40874e-006	0	0.00125
    94	4.31066e-008	0	0.01
    95	4.91624e-008	0	0.00933033
    96	5.60327e-008	0	0.00870551
    97	6.38104e-008	0	0.00812252
    98	7.25958e-008	0	0.00757858
    99	8.25065e-008	0	0.00707107
   100	9.36634e-008	0	0.00659754
   101	1.06184e-007	0	0.00615572
   102	1.20192e-007	0	0.00574349
   103	1.35825e-007	0	0.00535887
   104	1.53196e-007	0	0.005
   105	1.72419e-007	0	0.00466516
   106	1.9353e-007	0	0.00435275
   107	2.16727e-007	0	0.00406126
   108	2.41996e-007	0	0.00378929
   109	2.69347e-007	0	0.00353553
   110	2.98758e-007	0	0.00329877
   111	3.30172e-007	0	0.00307786
   112	3.63398e-007	0	0.00287175
   113	3.98305e-007	0	0.00267943
   114	4.34662e-007	0	0.0025
   115	4.72104e-007	0	0.00233258
   116	5.10339e-007	0	0.00217638
   117	5.48967e-007	0	0.00203063
   118	5.87654e-007	0	0.00189465
   119	6.25796e-007	0	0.00176777
   120	6.6319e-007	0	0.00164938
   121	6.99458e-007	0	0.00153893
   122	7.33983e-007	0	0.00143587
   123	7.66577e-007	0	0.00133972
   124	7.96807e-007	0	0.00125

Measurement: are
  step	AVG((v(a)-aavg)*cos(360*time*freq))	FROM	TO
     1	6.27597e-005	0	0.01
     2	6.72539e-005	0	0.00933033
     3	7.20732e-005	0	0.00870551
     4	7.72401e-005	0	0.00812252
     5	8.27845e-005	0	0.00757858
     6	8.8708e-005	0	0.00707107
     7	9.50715e-005	0	0.00659754
     8	0.000101891	0	0.00615572
     9	0.000109201	0	0.00574349
    10	0.000117039	0	0.00535887
    11	0.000125441	0	0.005
    12	0.000134439	0	0.00466516
    13	0.000144079	0	0.00435275
    14	0.000154419	0	0.00406126
    15	0.000165492	0	0.00378929
    16	0.000177355	0	0.00353553
    17	0.000190091	0	0.00329877
    18	0.000203729	0	0.00307786
    19	0.000218355	0	0.00287175
    20	0.000234016	0	0.00267943
    21	0.000250811	0	0.0025
    22	0.000268781	0	0.00233258
    23	0.000288069	0	0.00217638
    24	0.000308751	0	0.00203063
    25	0.000330881	0	0.00189465
    26	0.000354423	0	0.00176777
    27	0.00038002	0	0.00164938
    28	0.000407357	0	0.00153893
    29	0.000436446	0	0.00143587
    30	0.00046766	0	0.00133972
    31	0.000501043	0	0.00125
    32	6.27136e-005	0	0.01
    33	6.72135e-005	0	0.00933033
    34	7.20362e-005	0	0.00870551
    35	7.7205e-005	0	0.00812252
    36	8.27447e-005	0	0.00757858
    37	8.86819e-005	0	0.00707107
    38	9.50451e-005	0	0.00659754
    39	0.000101866	0	0.00615572
    40	0.000109184	0	0.00574349
    41	0.000117026	0	0.00535887
    42	0.000125422	0	0.005
    43	0.000134419	0	0.00466516
    44	0.000144061	0	0.00435275
    45	0.000154395	0	0.00406126
    46	0.000165478	0	0.00378929
    47	0.000177347	0	0.00353553
    48	0.000190074	0	0.00329877
    49	0.000203713	0	0.00307786
    50	0.000218317	0	0.00287175
    51	0.000233995	0	0.00267943
    52	0.000250765	0	0.0025
    53	0.000268762	0	0.00233258
    54	0.000288014	0	0.00217638
    55	0.000308585	0	0.00203063
    56	0.000330722	0	0.00189465
    57	0.000354426	0	0.00176777
    58	0.00037983	0	0.00164938
    59	0.000407045	0	0.00153893
    60	0.000436156	0	0.00143587
    61	0.000467353	0	0.00133972
    62	0.000500784	0	0.00125
    63	6.27053e-005	0	0.01
    64	6.72052e-005	0	0.00933033
    65	7.20279e-005	0	0.00870551
    66	7.71966e-005	0	0.00812252
    67	8.27363e-005	0	0.00757858
    68	8.86734e-005	0	0.00707107
    69	9.50448e-005	0	0.00659754
    70	0.000101857	0	0.00615572
    71	0.000109166	0	0.00574349
    72	0.000116999	0	0.00535887
    73	0.000125403	0	0.005
    74	0.0001344	0	0.00466516
    75	0.000144042	0	0.00435275
    76	0.000154376	0	0.00406126
    77	0.000165451	0	0.00378929
    78	0.00017732	0	0.00353553
    79	0.000190039	0	0.00329877
    80	0.000203678	0	0.00307786
    81	0.000218286	0	0.00287175
    82	0.00023394	0	0.00267943
    83	0.000250727	0	0.0025
    84	0.000268703	0	0.00233258
    85	0.000287973	0	0.00217638
    86	0.000308608	0	0.00203063
    87	0.000330727	0	0.00189465
    88	0.000354412	0	0.00176777
    89	0.000379778	0	0.00164938
    90	0.000406967	0	0.00153893
    91	0.000436086	0	0.00143587
    92	0.00046729	0	0.00133972
    93	0.000500713	0	0.00125
    94	6.27054e-005	0	0.01
    95	6.72053e-005	0	0.00933033
    96	7.20281e-005	0	0.00870551
    97	7.71969e-005	0	0.00812252
    98	8.27366e-005	0	0.00757858
    99	8.86737e-005	0	0.00707107
   100	9.50368e-005	0	0.00659754
   101	0.000101857	0	0.00615572
   102	0.000109166	0	0.00574349
   103	0.000116999	0	0.00535887
   104	0.000125394	0	0.005
   105	0.000134391	0	0.00466516
   106	0.000144034	0	0.00435275
   107	0.000154368	0	0.00406126
   108	0.000165442	0	0.00378929
   109	0.000177311	0	0.00353553
   110	0.00019003	0	0.00329877
   111	0.000203663	0	0.00307786
   112	0.000218265	0	0.00287175
   113	0.000233923	0	0.00267943
   114	0.000250702	0	0.0025
   115	0.000268675	0	0.00233258
   116	0.000287933	0	0.00217638
   117	0.000308577	0	0.00203063
   118	0.000330682	0	0.00189465
   119	0.000354377	0	0.00176777
   120	0.000379761	0	0.00164938
   121	0.000406948	0	0.00153893
   122	0.000436082	0	0.00143587
   123	0.000467284	0	0.00133972
   124	0.000500723	0	0.00125

Measurement: aim
  step	AVG(-(v(a)-aavg)*sin(360*time*freq))	FROM	TO
     1	-0.0049888	0	0.01
     2	-0.00498875	0	0.00933033
     3	-0.00498871	0	0.00870551
     4	-0.00498865	0	0.00812252
     5	-0.00498861	0	0.00757858
     6	-0.00498851	0	0.00707107
     7	-0.00498841	0	0.00659754
     8	-0.0049883	0	0.00615572
     9	-0.00498816	0	0.00574349
    10	-0.00498799	0	0.00535887
    11	-0.00498784	0	0.005
    12	-0.00498763	0	0.00466516
    13	-0.00498741	0	0.00435275
    14	-0.00498713	0	0.00406126
    15	-0.00498685	0	0.00378929
    16	-0.00498644	0	0.00353553
    17	-0.00498607	0	0.00329877
    18	-0.00498556	0	0.00307786
    19	-0.00498498	0	0.00287175
    20	-0.00498439	0	0.00267943
    21	-0.0049837	0	0.0025
    22	-0.00498285	0	0.00233258
    23	-0.00498188	0	0.00217638
    24	-0.00498081	0	0.00203063
    25	-0.00497956	0	0.00189465
    26	-0.0049781	0	0.00176777
    27	-0.00497655	0	0.00164938
    28	-0.00497432	0	0.00153893
    29	-0.00497204	0	0.00143587
    30	-0.00496942	0	0.00133972
    31	-0.0049663	0	0.00125
    32	-0.00498865	0	0.01
    33	-0.00498859	0	0.00933033
    34	-0.00498852	0	0.00870551
    35	-0.00498844	0	0.00812252
    36	-0.00498836	0	0.00757858
    37	-0.00498825	0	0.00707107
    38	-0.00498814	0	0.00659754
    39	-0.004988	0	0.00615572
    40	-0.00498785	0	0.00574349
    41	-0.00498768	0	0.00535887
    42	-0.00498748	0	0.005
    43	-0.00498724	0	0.00466516
    44	-0.00498697	0	0.00435275
    45	-0.00498667	0	0.00406126
    46	-0.00498632	0	0.00378929
    47	-0.00498593	0	0.00353553
    48	-0.00498547	0	0.00329877
    49	-0.00498495	0	0.00307786
    50	-0.00498434	0	0.00287175
    51	-0.00498364	0	0.00267943
    52	-0.00498283	0	0.0025
    53	-0.00498193	0	0.00233258
    54	-0.0049809	0	0.00217638
    55	-0.00497972	0	0.00203063
    56	-0.00497831	0	0.00189465
    57	-0.0049767	0	0.00176777
    58	-0.00497484	0	0.00164938
    59	-0.0049727	0	0.00153893
    60	-0.00497029	0	0.00143587
    61	-0.0049675	0	0.00133972
    62	-0.00496427	0	0.00125
    63	-0.00498864	0	0.01
    64	-0.00498858	0	0.00933033
    65	-0.00498852	0	0.00870551
    66	-0.00498844	0	0.00812252
    67	-0.00498835	0	0.00757858
    68	-0.00498825	0	0.00707107
    69	-0.00498813	0	0.00659754
    70	-0.004988	0	0.00615572
    71	-0.00498784	0	0.00574349
    72	-0.00498766	0	0.00535887
    73	-0.00498746	0	0.005
    74	-0.00498722	0	0.00466516
    75	-0.00498695	0	0.00435275
    76	-0.00498664	0	0.00406126
    77	-0.0049863	0	0.00378929
    78	-0.00498588	0	0.00353553
    79	-0.00498541	0	0.00329877
    80	-0.00498487	0	0.00307786
    81	-0.00498427	0	0.00287175
    82	-0.00498356	0	0.00267943
    83	-0.00498274	0	0.0025
    84	-0.00498181	0	0.00233258
    85	-0.00498074	0	0.00217638
    86	-0.0049795	0	0.00203063
    87	-0.0049781	0	0.00189465
    88	-0.00497647	0	0.00176777
    89	-0.00497461	0	0.00164938
    90	-0.00497247	0	0.00153893
    91	-0.00497005	0	0.00143587
    92	-0.00496723	0	0.00133972
    93	-0.00496398	0	0.00125
    94	-0.00498863	0	0.01
    95	-0.00498858	0	0.00933033
    96	-0.00498851	0	0.00870551
    97	-0.00498843	0	0.00812252
    98	-0.00498834	0	0.00757858
    99	-0.00498824	0	0.00707107
   100	-0.00498812	0	0.00659754
   101	-0.00498799	0	0.00615572
   102	-0.00498783	0	0.00574349
   103	-0.00498766	0	0.00535887
   104	-0.00498745	0	0.005
   105	-0.00498722	0	0.00466516
   106	-0.00498696	0	0.00435275
   107	-0.00498665	0	0.00406126
   108	-0.00498629	0	0.00378929
   109	-0.00498588	0	0.00353553
   110	-0.00498541	0	0.00329877
   111	-0.00498488	0	0.00307786
   112	-0.00498425	0	0.00287175
   113	-0.00498355	0	0.00267943
   114	-0.00498272	0	0.0025
   115	-0.00498179	0	0.00233258
   116	-0.00498071	0	0.00217638
   117	-0.00497948	0	0.00203063
   118	-0.00497806	0	0.00189465
   119	-0.00497644	0	0.00176777
   120	-0.00497457	0	0.00164938
   121	-0.00497243	0	0.00153893
   122	-0.00496996	0	0.00143587
   123	-0.00496714	0	0.00133972
   124	-0.0049639	0	0.00125

Measurement: bre
  step	AVG((v(b)-bavg)*cos(360*time*freq))	FROM	TO
     1	-0.000167948	0	0.01
     2	-0.000158447	0	0.00933033
     3	-0.000149123	0	0.00870551
     4	-0.00014002	0	0.00812252
     5	-0.000131172	0	0.00757858
     6	-0.000122603	0	0.00707107
     7	-0.000114329	0	0.00659754
     8	-0.000106356	0	0.00615572
     9	-9.86895e-005	0	0.00574349
    10	-9.13262e-005	0	0.00535887
    11	-8.42607e-005	0	0.005
    12	-7.7483e-005	0	0.00466516
    13	-7.09813e-005	0	0.00435275
    14	-6.4741e-005	0	0.00406126
    15	-5.87466e-005	0	0.00378929
    16	-5.2981e-005	0	0.00353553
    17	-4.74243e-005	0	0.00329877
    18	-4.20592e-005	0	0.00307786
    19	-3.68668e-005	0	0.00287175
    20	-3.18277e-005	0	0.00267943
    21	-2.69208e-005	0	0.0025
    22	-2.2128e-005	0	0.00233258
    23	-1.74278e-005	0	0.00217638
    24	-1.28017e-005	0	0.00203063
    25	-8.22877e-006	0	0.00189465
    26	-3.68917e-006	0	0.00176777
    27	8.37392e-007	0	0.00164938
    28	5.37105e-006	0	0.00153893
    29	9.93154e-006	0	0.00143587
    30	1.45399e-005	0	0.00133972
    31	1.92157e-005	0	0.00125
    32	-3.44954e-005	0	0.01
    33	-3.56618e-005	0	0.00933033
    34	-3.67143e-005	0	0.00870551
    35	-3.7627e-005	0	0.00812252
    36	-3.83734e-005	0	0.00757858
    37	-3.89279e-005	0	0.00707107
    38	-3.92663e-005	0	0.00659754
    39	-3.93667e-005	0	0.00615572
    40	-3.92108e-005	0	0.00574349
    41	-3.87844e-005	0	0.00535887
    42	-3.80784e-005	0	0.005
    43	-3.70882e-005	0	0.00466516
    44	-3.58151e-005	0	0.00435275
    45	-3.42647e-005	0	0.00406126
    46	-3.2447e-005	0	0.00378929
    47	-3.03759e-005	0	0.00353553
    48	-2.80673e-005	0	0.00329877
    49	-2.55391e-005	0	0.00307786
    50	-2.28098e-005	0	0.00287175
    51	-1.98972e-005	0	0.00267943
    52	-1.68185e-005	0	0.0025
    53	-1.35887e-005	0	0.00233258
    54	-1.02208e-005	0	0.00217638
    55	-6.72516e-006	0	0.00203063
    56	-3.10849e-006	0	0.00189465
    57	6.24027e-007	0	0.00176777
    58	4.47075e-006	0	0.00164938
    59	8.43273e-006	0	0.00153893
    60	1.25133e-005	0	0.00143587
    61	1.67187e-005	0	0.00133972
    62	2.10573e-005	0	0.00125
    63	-8.51788e-006	0	0.01
    64	-8.95858e-006	0	0.00933033
    65	-9.39724e-006	0	0.00870551
    66	-9.82777e-006	0	0.00812252
    67	-1.02429e-005	0	0.00757858
    68	-1.06339e-005	0	0.00707107
    69	-1.09909e-005	0	0.00659754
    70	-1.13025e-005	0	0.00615572
    71	-1.15558e-005	0	0.00574349
    72	-1.17365e-005	0	0.00535887
    73	-1.18293e-005	0	0.005
    74	-1.18181e-005	0	0.00466516
    75	-1.16858e-005	0	0.00435275
    76	-1.14156e-005	0	0.00406126
    77	-1.09907e-005	0	0.00378929
    78	-1.03952e-005	0	0.00353553
    79	-9.61455e-006	0	0.00329877
    80	-8.63588e-006	0	0.00307786
    81	-7.44869e-006	0	0.00287175
    82	-6.04463e-006	0	0.00267943
    83	-4.41801e-006	0	0.0025
    84	-2.56565e-006	0	0.00233258
    85	-4.86397e-007	0	0.00217638
    86	1.81889e-006	0	0.00203063
    87	4.34815e-006	0	0.00189465
    88	7.09833e-006	0	0.00176777
    89	1.00663e-005	0	0.00164938
    90	1.32492e-005	0	0.00153893
    91	1.66447e-005	0	0.00143587
    92	2.0252e-005	0	0.00133972
    93	2.40716e-005	0	0.00125
    94	-1.34529e-006	0	0.01
    95	-1.39936e-006	0	0.00933033
    96	-1.44837e-006	0	0.00870551
    97	-1.49019e-006	0	0.00812252
    98	-1.5222e-006	0	0.00757858
    99	-1.5412e-006	0	0.00707107
   100	-1.54337e-006	0	0.00659754
   101	-1.52418e-006	0	0.00615572
   102	-1.47824e-006	0	0.00574349
   103	-1.39928e-006	0	0.00535887
   104	-1.28003e-006	0	0.005
   105	-1.11218e-006	0	0.00466516
   106	-8.86349e-007	0	0.00435275
   107	-5.91938e-007	0	0.00406126
   108	-2.17387e-007	0	0.00378929
   109	2.49897e-007	0	0.00353553
   110	8.23377e-007	0	0.00329877
   111	1.5172e-006	0	0.00307786
   112	2.34582e-006	0	0.00287175
   113	3.32398e-006	0	0.00267943
   114	4.46608e-006	0	0.0025
   115	5.78601e-006	0	0.00233258
   116	7.29679e-006	0	0.00217638
   117	9.01039e-006	0	0.00203063
   118	1.09372e-005	0	0.00189465
   119	1.30867e-005	0	0.00176777
   120	1.54663e-005	0	0.00164938
   121	1.80828e-005	0	0.00153893
   122	2.09414e-005	0	0.00143587
   123	2.4047e-005	0	0.00133972
   124	2.7404e-005	0	0.00125

Measurement: bim
  step	AVG(-(v(b)-bavg)*sin(360*time*freq))	FROM	TO
     1	-6.97771e-005	0	0.01
     2	-6.22719e-005	0	0.00933033
     3	-5.55243e-005	0	0.00870551
     4	-4.9476e-005	0	0.00812252
     5	-4.40695e-005	0	0.00757858
     6	-3.92482e-005	0	0.00707107
     7	-3.49573e-005	0	0.00659754
     8	-3.11453e-005	0	0.00615572
     9	-2.77636e-005	0	0.00574349
    10	-2.47672e-005	0	0.00535887
    11	-2.21152e-005	0	0.005
    12	-1.97694e-005	0	0.00466516
    13	-1.76957e-005	0	0.00435275
    14	-1.58626e-005	0	0.00406126
    15	-1.42427e-005	0	0.00378929
    16	-1.28104e-005	0	0.00353553
    17	-1.15432e-005	0	0.00329877
    18	-1.04212e-005	0	0.00307786
    19	-9.42634e-006	0	0.00287175
    20	-8.54285e-006	0	0.00267943
    21	-7.75607e-006	0	0.0025
    22	-7.05351e-006	0	0.00233258
    23	-6.42342e-006	0	0.00217638
    24	-5.8558e-006	0	0.00203063
    25	-5.34146e-006	0	0.00189465
    26	-4.87207e-006	0	0.00176777
    27	-4.43976e-006	0	0.00164938
    28	-4.03771e-006	0	0.00153893
    29	-3.65948e-006	0	0.00143587
    30	-3.29893e-006	0	0.00133972
    31	-2.95001e-006	0	0.00125
    32	-8.12758e-005	0	0.01
    33	-7.89426e-005	0	0.00933033
    34	-7.64305e-005	0	0.00870551
    35	-7.37447e-005	0	0.00812252
    36	-7.08945e-005	0	0.00757858
    37	-6.78936e-005	0	0.00707107
    38	-6.476e-005	0	0.00659754
    39	-6.15162e-005	0	0.00615572
    40	-5.81879e-005	0	0.00574349
    41	-5.4804e-005	0	0.00535887
    42	-5.13956e-005	0	0.005
    43	-4.79938e-005	0	0.00466516
    44	-4.46301e-005	0	0.00435275
    45	-4.13343e-005	0	0.00406126
    46	-3.81331e-005	0	0.00378929
    47	-3.50508e-005	0	0.00353553
    48	-3.21067e-005	0	0.00329877
    49	-2.93164e-005	0	0.00307786
    50	-2.66906e-005	0	0.00287175
    51	-2.42359e-005	0	0.00267943
    52	-2.1955e-005	0	0.0025
    53	-1.98468e-005	0	0.00233258
    54	-1.79073e-005	0	0.00217638
    55	-1.61299e-005	0	0.00203063
    56	-1.45055e-005	0	0.00189465
    57	-1.30245e-005	0	0.00176777
    58	-1.16759e-005	0	0.00164938
    59	-1.04478e-005	0	0.00153893
    60	-9.32835e-006	0	0.00143587
    61	-8.3052e-006	0	0.00133972
    62	-7.36624e-006	0	0.00125
    63	-5.20798e-005	0	0.01
    64	-5.15405e-005	0	0.00933033
    65	-5.09356e-005	0	0.00870551
    66	-5.02594e-005	0	0.00812252
    67	-4.95059e-005	0	0.00757858
    68	-4.86697e-005	0	0.00707107
    69	-4.77456e-005	0	0.00659754
    70	-4.67293e-005	0	0.00615572
    71	-4.56173e-005	0	0.00574349
    72	-4.44074e-005	0	0.00535887
    73	-4.30992e-005	0	0.005
    74	-4.16939e-005	0	0.00466516
    75	-4.01952e-005	0	0.00435275
    76	-3.86088e-005	0	0.00406126
    77	-3.69429e-005	0	0.00378929
    78	-3.52079e-005	0	0.00353553
    79	-3.34165e-005	0	0.00329877
    80	-3.15832e-005	0	0.00307786
    81	-2.97237e-005	0	0.00287175
    82	-2.78546e-005	0	0.00267943
    83	-2.59925e-005	0	0.0025
    84	-2.41537e-005	0	0.00233258
    85	-2.2353e-005	0	0.00217638
    86	-2.0604e-005	0	0.00203063
    87	-1.8918e-005	0	0.00189465
    88	-1.73037e-005	0	0.00176777
    89	-1.57675e-005	0	0.00164938
    90	-1.43134e-005	0	0.00153893
    91	-1.29426e-005	0	0.00143587
    92	-1.16542e-005	0	0.00133972
    93	-1.04451e-005	0	0.00125
    94	-3.73246e-005	0	0.01
    95	-3.71329e-005	0	0.00933033
    96	-3.69154e-005	0	0.00870551
    97	-3.66689e-005	0	0.00812252
    98	-3.63901e-005	0	0.00757858
    99	-3.60755e-005	0	0.00707107
   100	-3.57213e-005	0	0.00659754
   101	-3.53235e-005	0	0.00615572
   102	-3.48782e-005	0	0.00574349
   103	-3.43813e-005	0	0.00535887
   104	-3.38288e-005	0	0.005
   105	-3.32171e-005	0	0.00466516
   106	-3.2543e-005	0	0.00435275
   107	-3.18035e-005	0	0.00406126
   108	-3.09969e-005	0	0.00378929
   109	-3.01221e-005	0	0.00353553
   110	-2.91795e-005	0	0.00329877
   111	-2.81706e-005	0	0.00307786
   112	-2.70986e-005	0	0.00287175
   113	-2.59681e-005	0	0.00267943
   114	-2.47853e-005	0	0.0025
   115	-2.3558e-005	0	0.00233258
   116	-2.2295e-005	0	0.00217638
   117	-2.10064e-005	0	0.00203063
   118	-1.97024e-005	0	0.00189465
   119	-1.83939e-005	0	0.00176777
   120	-1.7091e-005	0	0.00164938
   121	-1.58035e-005	0	0.00153893
   122	-1.45397e-005	0	0.00143587
   123	-1.33065e-005	0	0.00133972
   124	-1.21093e-005	0	0.00125

Measurement: gainmag
  step	20*log10(hypot(are,aim)/hypot(bre,bim))
     1	28.7656
     2	29.3391
     3	29.9259
     4	30.5259
     5	31.1395
     6	31.7671
     7	32.4095
     8	33.0683
     9	33.7447
    10	34.4408
    11	35.1592
    12	35.903
    13	36.6764
    14	37.4844
    15	38.3336
    16	39.2321
    17	40.1915
    18	41.2255
    19	42.3539
    20	43.6036
    21	45.014
    22	46.6431
    23	48.5843
    24	50.9922
    25	54.1292
    26	58.2407
    27	60.8648
    28	57.417
    29	53.4708
    30	50.4952
    31	48.1904
    32	35.0418
    33	35.2076
    34	35.3933
    35	35.6009
    36	35.8322
    37	36.0893
    38	36.3745
    39	36.6898
    40	37.0378
    41	37.4208
    42	37.8416
    43	38.3031
    44	38.8088
    45	39.3626
    46	39.9689
    47	40.6335
    48	41.363
    49	42.1658
    50	43.052
    51	44.0337
    52	45.1245
    53	46.3372
    54	47.6754
    55	49.1121
    56	50.5351
    57	51.6556
    58	52.0209
    59	51.4017
    60	50.0942
    61	48.5391
    62	46.9917
    63	39.5123
    64	39.5881
    65	39.6745
    66	39.773
    67	39.8851
    68	40.0126
    69	40.1574
    70	40.3216
    71	40.5076
    72	40.718
    73	40.9555
    74	41.2233
    75	41.5245
    76	41.8626
    77	42.2414
    78	42.6645
    79	43.1357
    80	43.6581
    81	44.2338
    82	44.8626
    83	45.5397
    84	46.252
    85	46.9716
    86	47.6476
    87	48.1993
    88	48.5222
    89	48.5204
    90	48.1579
    91	47.4812
    92	46.5889
    93	45.5813
    94	42.5148
    95	42.559
    96	42.6095
    97	42.6672
    98	42.7331
    99	42.8081
   100	42.8937
   101	42.991
   102	43.1014
   103	43.2267
   104	43.3684
   105	43.5282
   106	43.708
   107	43.9093
   108	44.1338
   109	44.3823
   110	44.6553
   111	44.9518
   112	45.269
   113	45.601
   114	45.9377
   115	46.2632
   116	46.5542
   117	46.7798
   118	46.9033
   119	46.8881
   120	46.7069
   121	46.3506
   122	45.8316
   123	45.1791
   124	44.4295

Measurement: gainphi
  step	mod(atan2(aim,are)-atan2(bim,bre)+180,360)-180
     1	68.1594
     2	69.3169
     3	70.4055
     4	71.4262
     5	72.38
     6	73.2676
     7	74.0903
     8	74.8481
     9	75.5416
    10	76.1708
    11	76.7344
    12	77.2307
    13	77.6562
    14	78.0063
    15	78.2727
    16	78.4443
    17	78.5034
    18	78.4238
    19	78.1656
    20	77.6634
    21	76.809
    22	75.4074
    23	73.0769
    24	68.9666
    25	60.8132
    26	41.2056
    27	-6.31442
    28	-48.3842
    29	-64.7561
    30	-71.8405
    31	-75.5111
    32	23.7178
    33	25.0827
    34	26.4852
    35	27.9188
    36	29.3759
    37	30.847
    38	32.3215
    39	33.7868
    40	35.2287
    41	36.6309
    42	37.9749
    43	39.2397
    44	40.4013
    45	41.431
    46	42.2948
    47	42.9501
    48	43.3429
    49	43.401
    50	43.0251
    51	42.0736
    52	40.3347
    53	37.4867
    54	33.0255
    55	26.1791
    56	15.8962
    57	1.33052
    58	-16.586
    59	-34.2284
    60	-48.2814
    61	-58.2089
    62	-64.9588
    63	10.0089
    64	10.6323
    65	11.2803
    66	11.9507
    67	12.6399
    68	13.3434
    69	14.0551
    70	14.767
    71	15.4689
    72	16.148
    73	16.7882
    74	17.3689
    75	17.865
    76	18.2448
    77	18.4685
    78	18.4862
    79	18.2345
    80	17.6325
    81	16.5761
    82	14.9313
    83	12.5272
    84	9.1507
    85	4.55555
    86	-1.49849
    87	-9.14325
    88	-18.2309
    89	-28.1893
    90	-38.1102
    91	-47.1176
    92	-54.7072
    93	-60.7833
    94	2.78437
    95	2.93
    96	3.07407
    97	3.21376
    98	3.3455
    99	3.46469
   100	3.56548
   101	3.64056
   102	3.68071
   103	3.67437
   104	3.60717
   105	3.46125
   106	3.2145
   107	2.83938
   108	2.30216
   109	1.56141
   110	0.566578
   111	-0.743242
   112	-2.44012
   113	-4.6069
   114	-7.3342
   115	-10.7121
   116	-14.8138
   117	-19.6702
   118	-25.2352
   119	-31.3575
   120	-37.7776
   121	-44.1694
   122	-50.2132
   123	-55.6676
   124	-60.4001


Date: Fri Nov 06 03:27:18 2015
Total elapsed time: 6.574 seconds.

tnom = 27
temp = 27
method = modified trap
totiter = 2094
traniter = 2094
tranpoints = 1048
accept = 1048
rejected = 0
matrix size = 6
fillins = 1
solver = Normal
Matrix Compiler1: 272 bytes object code size  0.3/0.2/[0.2]
Matrix Compiler2: 436 bytes object code size  0.2/0.2/[0.2]


