Circuit: * Z:\home\mainster\CODES_local\LTSpice_projects\output-impedance.asc


Date: Fri Nov 06 03:19:15 2015
Total elapsed time: 0.009 seconds.

tnom = 27
temp = 27
method = trap
totiter = 0
traniter = 0
tranpoints = 0
accept = 0
rejected = 0
matrix size = 3
fillins = 1
solver = Normal

