Circuit: * Z:\home\mainster\CODES_local\LTSpice_projects\quantizer.asc

.OP point found by inspection.

Date: Thu May 21 23:55:36 2015
Total elapsed time: 0.337 seconds.

tnom = 27
temp = 27
method = modified trap
totiter = 10130
traniter = 10130
tranpoints = 5018
accept = 5018
rejected = 0
matrix size = 4
fillins = 0
solver = Normal
Matrix Compiler1: 100 bytes object code size  0.2/0.2/[0.1]
Matrix Compiler2: 202 bytes object code size  0.2/0.2/[0.1]


