Circuit: * Z:\home\mainster\CODES_local\LTSpice_projects\rlc_stoch.asc


Date: Sun Dec 27 11:31:23 2015
Total elapsed time: 0.087 seconds.

tnom = 27
temp = 27
method = trap
totiter = 0
traniter = 0
tranpoints = 0
accept = 0
rejected = 0
matrix size = 4
fillins = 0
solver = Normal

