Circuit: * Z:\home\mainster\CODES_local\LTSpice_projects\S-param_2tor_4pol.asc

WARNING: Node N001 is floating.
WARNING: Node N003 is floating.
WARNING: Node N006 is floating.
WARNING: Node N007 is floating.
WARNING: Node N010 is floating.
WARNING: Node OUT1 is floating.
WARNING: Node N013 is floating.
WARNING: Node N016 is floating.
WARNING: Node N017 is floating.
WARNING: Node N020 is floating.
WARNING: Node OUT2 is floating.
WARNING: Node N023 is floating.
WARNING: Node N026 is floating.
WARNING: Node N027 is floating.
WARNING: Node N030 is floating.
WARNING: Node OUT3 is floating.
WARNING: Node N033 is floating.
WARNING: Node N036 is floating.
WARNING: Node N037 is floating.
WARNING: Node N040 is floating.
WARNING: Node N043 is floating.
WARNING: Node N046 is floating.
WARNING: Node N047 is floating.
WARNING: Node N050 is floating.

WARNING: Less than two connections to node OUT1.  This node is used by C14.
WARNING: Less than two connections to node OUT2.  This node is used by C27.
WARNING: Less than two connections to node OUT3.  This node is used by C40.
.step ser=50
.step ser=100
.step ser=1000

Date: Wed May 27 01:20:06 2015
Total elapsed time: 0.344 seconds.

tnom = 27
temp = 27
method = trap
totiter = 0
traniter = 0
tranpoints = 0
accept = 0
rejected = 0
matrix size = 56
fillins = 0
solver = Normal

