Circuit: * Z:\home\mainster\CODES_local\LTSpice_projects\schmitttrigger.asc

WARNING: Less than two connections to node V+.  This node is used by V2.
WARNING: Less than two connections to node V-.  This node is used by V3.
WARNING: Less than two connections to node UEIN.  This node is used by V7.
WARNING: Less than two connections to node UAUS.  This node is used by V8.
Direct Newton iteration failed to find .op point.  (Use ".option noopiter" to skip.)
Starting Gmin stepping
Gmin = 10
Gmin = 1.07374
Gmin = 0.115292
Gmin = 0.0123794
Gmin = 0.00132923
Gmin = 0.000142725
Gmin = 1.5325e-005
Gmin = 1.6455e-006
Gmin = 1.76685e-007
Gmin = 1.89714e-008
Gmin = 2.03704e-009
Gmin = 2.18725e-010
Gmin = 2.34854e-011
Gmin = 2.52173e-012
Gmin = 2.70769e-013
Gmin = 0
Gmin stepping succeeded in finding the operating point.


Date: Sun Feb 08 21:48:08 2015
Total elapsed time: 0.082 seconds.

tnom = 27
temp = 27
method = modified trap
totiter = 3268
traniter = 2893
tranpoints = 1284
accept = 1219
rejected = 65
matrix size = 21
fillins = 3
solver = Normal
Matrix Compiler1: 742 bytes object code size  0.4/0.3/[0.2]
Matrix Compiler2: off  [0.7]/1.0/0.9


