Circuit: * Z:\home\mainster\CODES_local\LTSpice_projects\schmitttrigger_2.asc

Direct Newton iteration failed to find .op point.  (Use ".option noopiter" to skip.)
Starting Gmin stepping
Gmin = 10
Gmin = 1.07374
Gmin = 0.115292
Gmin = 0.0123794
Gmin = 0.00132923
Gmin = 0.000142725
Gmin = 1.5325e-005
Gmin = 1.6455e-006
Gmin = 1.76685e-007
Gmin = 1.89714e-008
Gmin = 2.03704e-009
Gmin = 2.18725e-010
Gmin = 2.34854e-011
Gmin = 2.52173e-012
Gmin = 2.70769e-013
Gmin = 0
Gmin stepping succeeded in finding the operating point.


Date: Sun Feb 08 22:03:42 2015
Total elapsed time: 0.065 seconds.

tnom = 27
temp = 27
method = modified trap
totiter = 3242
traniter = 2867
tranpoints = 1270
accept = 1204
rejected = 66
matrix size = 20
fillins = 3
solver = Normal
Matrix Compiler1: 674 bytes object code size  0.4/0.3/[0.2]
Matrix Compiler2: 1.43 KB object code size  0.7/0.6/[0.6]


