Circuit: * Z:\home\mainster\CODES_local\LTSpice_projects\superposition.asc

.OP point found by inspection.

Date: Wed Jan 07 05:41:16 2015
Total elapsed time: 0.407 seconds.

tnom = 27
temp = 27
method = modified trap
totiter = 28502
traniter = 28502
tranpoints = 14252
accept = 13831
rejected = 421
matrix size = 6
fillins = 0
solver = Normal
Matrix Compiler1: 110 bytes object code size  0.3/0.3/[0.3]
Matrix Compiler2: 346 bytes object code size  0.3/0.3/[0.3]


