Circuit: * Z:\home\mainster\CODES_local\LTSpice_projects\sweep.asc

Error on line 4 : v2 v2 0 v=((time/ 0.001 )-(int(time/ 0.001 ))<(time/ 0.1 )-(int(time/ 0.1 )))*5
	 Unknown parameter "v"
WARNING: Less than two connections to node V1.  This node is used by V1.
WARNING: Less than two connections to node N001.  This node is used by B1.
V2: Missing value, assumed 0V @ DC
Direct Newton iteration for .op point succeeded.

Date: Thu Mar 26 21:58:11 2015
Total elapsed time: 0.143 seconds.

tnom = 27
temp = 27
method = modified trap
totiter = 2085
traniter = 2082
tranpoints = 1042
accept = 1042
rejected = 0
matrix size = 6
fillins = 0
solver = Normal
Matrix Compiler1: 92 bytes object code size  0.8/0.8/[0.7]
Matrix Compiler2: 252 bytes object code size  0.8/0.8/[0.8]


