Circuit: * Z:\home\mainster\CODES_local\LTSpice_projects\tor_ctrl.asc

Direct Newton iteration for .op point succeeded.

Date: Sun Aug 07 03:02:13 2016
Total elapsed time: 0.091 seconds.

tnom = 27
temp = 27
method = modified trap
totiter = 4535
traniter = 4532
tranpoints = 2243
accept = 2004
rejected = 239
matrix size = 18
fillins = 0
solver = Normal
Matrix Compiler1: 350 bytes object code size  1.4/1.4/[1.4]
Matrix Compiler2: 810 bytes object code size  1.4/1.5/[1.4]


