Circuit: * Z:\home\mainster\CODES_local\LTSpice_projects\tp_spann_teiler.asc


Date: Sat Jan 31 01:56:50 2015
Total elapsed time: 0.010 seconds.

tnom = 27
temp = 27
method = trap
totiter = 0
traniter = 0
tranpoints = 0
accept = 0
rejected = 0
matrix size = 3
fillins = 0
solver = Normal

