Circuit: * C:\Program Files (x86)\LTC_ALL\LTspiceIV_4.18_multiLibs\examples\LTspiceWorldTour2009\Misc\Fast&Slow\Slow.asc

WARNING: Less than two connections to node N481.  This node is used by V3.
WARNING: Less than two connections to node N482.  This node is used by V4.
WARNING: Less than two connections to node N483.  This node is used by V5.
WARNING: Less than two connections to node N484.  This node is used by V6.
WARNING: Less than two connections to node N485.  This node is used by V7.
WARNING: Less than two connections to node N486.  This node is used by V8.
WARNING: Less than two connections to node N487.  This node is used by V9.
WARNING: Less than two connections to node N488.  This node is used by V10.
WARNING: Less than two connections to node N489.  This node is used by V11.
WARNING: Less than two connections to node N490.  This node is used by V12.
WARNING: Less than two connections to node N491.  This node is used by V13.
WARNING: Less than two connections to node N492.  This node is used by V14.
WARNING: Less than two connections to node N493.  This node is used by V15.
WARNING: Less than two connections to node N494.  This node is used by V16.
WARNING: Less than two connections to node N495.  This node is used by V17.
WARNING: Less than two connections to node N496.  This node is used by V18.
WARNING: Less than two connections to node N497.  This node is used by V19.
WARNING: Less than two connections to node N498.  This node is used by V20.
WARNING: Less than two connections to node N499.  This node is used by V21.
WARNING: Less than two connections to node N500.  This node is used by V22.
WARNING: Less than two connections to node N501.  This node is used by V23.
WARNING: Less than two connections to node N502.  This node is used by V24.
WARNING: Less than two connections to node N503.  This node is used by V25.
WARNING: Less than two connections to node N504.  This node is used by V26.
WARNING: Less than two connections to node N505.  This node is used by V27.
WARNING: Less than two connections to node N506.  This node is used by V28.
WARNING: Less than two connections to node N507.  This node is used by V29.
WARNING: Less than two connections to node N508.  This node is used by V30.
WARNING: Less than two connections to node N509.  This node is used by V31.
WARNING: Less than two connections to node N510.  This node is used by V32.
WARNING: Less than two connections to node N511.  This node is used by V33.
WARNING: Less than two connections to node N512.  This node is used by V34.
WARNING: Less than two connections to node N417.  This node is used by V35.
WARNING: Less than two connections to node N418.  This node is used by V36.
WARNING: Less than two connections to node N419.  This node is used by V37.
WARNING: Less than two connections to node N420.  This node is used by V38.
WARNING: Less than two connections to node N421.  This node is used by V39.
WARNING: Less than two connections to node N422.  This node is used by V40.
WARNING: Less than two connections to node N423.  This node is used by V41.
WARNING: Less than two connections to node N424.  This node is used by V42.
WARNING: Less than two connections to node N425.  This node is used by V43.
WARNING: Less than two connections to node N426.  This node is used by V44.
WARNING: Less than two connections to node N427.  This node is used by V45.
WARNING: Less than two connections to node N428.  This node is used by V46.
WARNING: Less than two connections to node N429.  This node is used by V47.
WARNING: Less than two connections to node N430.  This node is used by V48.
WARNING: Less than two connections to node N431.  This node is used by V49.
WARNING: Less than two connections to node N432.  This node is used by V50.
WARNING: Less than two connections to node N433.  This node is used by V51.
WARNING: Less than two connections to node N434.  This node is used by V52.
WARNING: Less than two connections to node N435.  This node is used by V53.
WARNING: Less than two connections to node N436.  This node is used by V54.
WARNING: Less than two connections to node N437.  This node is used by V55.
WARNING: Less than two connections to node N438.  This node is used by V56.
WARNING: Less than two connections to node N439.  This node is used by V57.
WARNING: Less than two connections to node N440.  This node is used by V58.
WARNING: Less than two connections to node N441.  This node is used by V59.
WARNING: Less than two connections to node N442.  This node is used by V60.
WARNING: Less than two connections to node N443.  This node is used by V61.
WARNING: Less than two connections to node N444.  This node is used by V62.
WARNING: Less than two connections to node N445.  This node is used by V63.
WARNING: Less than two connections to node N446.  This node is used by V64.
WARNING: Less than two connections to node N447.  This node is used by V65.
WARNING: Less than two connections to node N448.  This node is used by V66.
WARNING: Less than two connections to node N353.  This node is used by V67.
WARNING: Less than two connections to node N354.  This node is used by V68.
WARNING: Less than two connections to node N355.  This node is used by V69.
WARNING: Less than two connections to node N356.  This node is used by V70.
WARNING: Less than two connections to node N357.  This node is used by V71.
WARNING: Less than two connections to node N358.  This node is used by V72.
WARNING: Less than two connections to node N359.  This node is used by V73.
WARNING: Less than two connections to node N360.  This node is used by V74.
WARNING: Less than two connections to node N361.  This node is used by V75.
WARNING: Less than two connections to node N362.  This node is used by V76.
WARNING: Less than two connections to node N363.  This node is used by V77.
WARNING: Less than two connections to node N364.  This node is used by V78.
WARNING: Less than two connections to node N365.  This node is used by V79.
WARNING: Less than two connections to node N366.  This node is used by V80.
WARNING: Less than two connections to node N367.  This node is used by V81.
WARNING: Less than two connections to node N368.  This node is used by V82.
WARNING: Less than two connections to node N369.  This node is used by V83.
WARNING: Less than two connections to node N370.  This node is used by V84.
WARNING: Less than two connections to node N371.  This node is used by V85.
WARNING: Less than two connections to node N372.  This node is used by V86.
WARNING: Less than two connections to node N373.  This node is used by V87.
WARNING: Less than two connections to node N374.  This node is used by V88.
WARNING: Less than two connections to node N375.  This node is used by V89.
WARNING: Less than two connections to node N376.  This node is used by V90.
WARNING: Less than two connections to node N377.  This node is used by V91.
WARNING: Less than two connections to node N378.  This node is used by V92.
WARNING: Less than two connections to node N379.  This node is used by V93.
WARNING: Less than two connections to node N380.  This node is used by V94.
WARNING: Less than two connections to node N381.  This node is used by V95.
WARNING: Less than two connections to node N382.  This node is used by V96.
WARNING: Less than two connections to node N383.  This node is used by V97.
WARNING: Less than two connections to node N384.  This node is used by V98.
WARNING: Less than two connections to node N289.  This node is used by V99.
WARNING: Less than two connections to node N290.  This node is used by V100.
WARNING: Less than two connections to node N291.  This node is used by V101.
WARNING: Less than two connections to node N292.  This node is used by V102.
WARNING: Less than two connections to node N293.  This node is used by V103.
WARNING: Less than two connections to node N294.  This node is used by V104.
WARNING: Less than two connections to node N295.  This node is used by V105.
WARNING: Less than two connections to node N296.  This node is used by V106.
WARNING: Less than two connections to node N297.  This node is used by V107.
WARNING: Less than two connections to node N298.  This node is used by V108.
WARNING: Less than two connections to node N299.  This node is used by V109.
WARNING: Less than two connections to node N300.  This node is used by V110.
WARNING: Less than two connections to node N301.  This node is used by V111.
WARNING: Less than two connections to node N302.  This node is used by V112.
WARNING: Less than two connections to node N303.  This node is used by V113.
WARNING: Less than two connections to node N304.  This node is used by V114.
WARNING: Less than two connections to node N305.  This node is used by V115.
WARNING: Less than two connections to node N306.  This node is used by V116.
WARNING: Less than two connections to node N307.  This node is used by V117.
WARNING: Less than two connections to node N308.  This node is used by V118.
WARNING: Less than two connections to node N309.  This node is used by V119.
WARNING: Less than two connections to node N310.  This node is used by V120.
WARNING: Less than two connections to node N311.  This node is used by V121.
WARNING: Less than two connections to node N312.  This node is used by V122.
WARNING: Less than two connections to node N313.  This node is used by V123.
WARNING: Less than two connections to node N314.  This node is used by V124.
WARNING: Less than two connections to node N315.  This node is used by V125.
WARNING: Less than two connections to node N316.  This node is used by V126.
WARNING: Less than two connections to node N317.  This node is used by V127.
WARNING: Less than two connections to node N318.  This node is used by V128.
WARNING: Less than two connections to node N319.  This node is used by V129.
WARNING: Less than two connections to node N320.  This node is used by V130.
WARNING: Less than two connections to node N225.  This node is used by V131.
WARNING: Less than two connections to node N226.  This node is used by V132.
WARNING: Less than two connections to node N227.  This node is used by V133.
WARNING: Less than two connections to node N228.  This node is used by V134.
WARNING: Less than two connections to node N229.  This node is used by V135.
WARNING: Less than two connections to node N230.  This node is used by V136.
WARNING: Less than two connections to node N231.  This node is used by V137.
WARNING: Less than two connections to node N232.  This node is used by V138.
WARNING: Less than two connections to node N233.  This node is used by V139.
WARNING: Less than two connections to node N234.  This node is used by V140.
WARNING: Less than two connections to node N235.  This node is used by V141.
WARNING: Less than two connections to node N236.  This node is used by V142.
WARNING: Less than two connections to node N237.  This node is used by V143.
WARNING: Less than two connections to node N238.  This node is used by V144.
WARNING: Less than two connections to node N239.  This node is used by V145.
WARNING: Less than two connections to node N240.  This node is used by V146.
WARNING: Less than two connections to node N241.  This node is used by V147.
WARNING: Less than two connections to node N242.  This node is used by V148.
WARNING: Less than two connections to node N243.  This node is used by V149.
WARNING: Less than two connections to node N244.  This node is used by V150.
WARNING: Less than two connections to node N245.  This node is used by V151.
WARNING: Less than two connections to node N246.  This node is used by V152.
WARNING: Less than two connections to node N247.  This node is used by V153.
WARNING: Less than two connections to node N248.  This node is used by V154.
WARNING: Less than two connections to node N249.  This node is used by V155.
WARNING: Less than two connections to node N250.  This node is used by V156.
WARNING: Less than two connections to node N251.  This node is used by V157.
WARNING: Less than two connections to node N252.  This node is used by V158.
WARNING: Less than two connections to node N253.  This node is used by V159.
WARNING: Less than two connections to node N254.  This node is used by V160.
WARNING: Less than two connections to node N255.  This node is used by V161.
WARNING: Less than two connections to node N256.  This node is used by V162.
WARNING: Less than two connections to node N161.  This node is used by V163.
WARNING: Less than two connections to node N162.  This node is used by V164.
WARNING: Less than two connections to node N163.  This node is used by V165.
WARNING: Less than two connections to node N164.  This node is used by V166.
WARNING: Less than two connections to node N165.  This node is used by V167.
WARNING: Less than two connections to node N166.  This node is used by V168.
WARNING: Less than two connections to node N167.  This node is used by V169.
WARNING: Less than two connections to node N168.  This node is used by V170.
WARNING: Less than two connections to node N169.  This node is used by V171.
WARNING: Less than two connections to node N170.  This node is used by V172.
WARNING: Less than two connections to node N171.  This node is used by V173.
WARNING: Less than two connections to node N172.  This node is used by V174.
WARNING: Less than two connections to node N173.  This node is used by V175.
WARNING: Less than two connections to node N174.  This node is used by V176.
WARNING: Less than two connections to node N175.  This node is used by V177.
WARNING: Less than two connections to node N176.  This node is used by V178.
WARNING: Less than two connections to node N177.  This node is used by V179.
WARNING: Less than two connections to node N178.  This node is used by V180.
WARNING: Less than two connections to node N179.  This node is used by V181.
WARNING: Less than two connections to node N180.  This node is used by V182.
WARNING: Less than two connections to node N181.  This node is used by V183.
WARNING: Less than two connections to node N182.  This node is used by V184.
WARNING: Less than two connections to node N183.  This node is used by V185.
WARNING: Less than two connections to node N184.  This node is used by V186.
WARNING: Less than two connections to node N185.  This node is used by V187.
WARNING: Less than two connections to node N186.  This node is used by V188.
WARNING: Less than two connections to node N187.  This node is used by V189.
WARNING: Less than two connections to node N188.  This node is used by V190.
WARNING: Less than two connections to node N189.  This node is used by V191.
WARNING: Less than two connections to node N190.  This node is used by V192.
WARNING: Less than two connections to node N191.  This node is used by V193.
WARNING: Less than two connections to node N192.  This node is used by V194.
WARNING: Less than two connections to node N097.  This node is used by V195.
WARNING: Less than two connections to node N098.  This node is used by V196.
WARNING: Less than two connections to node N099.  This node is used by V197.
WARNING: Less than two connections to node N100.  This node is used by V198.
WARNING: Less than two connections to node N101.  This node is used by V199.
WARNING: Less than two connections to node N102.  This node is used by V200.
WARNING: Less than two connections to node N103.  This node is used by V201.
WARNING: Less than two connections to node N104.  This node is used by V202.
WARNING: Less than two connections to node N105.  This node is used by V203.
WARNING: Less than two connections to node N106.  This node is used by V204.
WARNING: Less than two connections to node N107.  This node is used by V205.
WARNING: Less than two connections to node N108.  This node is used by V206.
WARNING: Less than two connections to node N109.  This node is used by V207.
WARNING: Less than two connections to node N110.  This node is used by V208.
WARNING: Less than two connections to node N111.  This node is used by V209.
WARNING: Less than two connections to node N112.  This node is used by V210.
WARNING: Less than two connections to node N113.  This node is used by V211.
WARNING: Less than two connections to node N114.  This node is used by V212.
WARNING: Less than two connections to node N115.  This node is used by V213.
WARNING: Less than two connections to node N116.  This node is used by V214.
WARNING: Less than two connections to node N117.  This node is used by V215.
WARNING: Less than two connections to node N118.  This node is used by V216.
WARNING: Less than two connections to node N119.  This node is used by V217.
WARNING: Less than two connections to node N120.  This node is used by V218.
WARNING: Less than two connections to node N121.  This node is used by V219.
WARNING: Less than two connections to node N122.  This node is used by V220.
WARNING: Less than two connections to node N123.  This node is used by V221.
WARNING: Less than two connections to node N124.  This node is used by V222.
WARNING: Less than two connections to node N125.  This node is used by V223.
WARNING: Less than two connections to node N126.  This node is used by V224.
WARNING: Less than two connections to node N127.  This node is used by V225.
WARNING: Less than two connections to node N128.  This node is used by V226.
WARNING: Less than two connections to node N033.  This node is used by V227.
WARNING: Less than two connections to node N034.  This node is used by V228.
WARNING: Less than two connections to node N035.  This node is used by V229.
WARNING: Less than two connections to node N036.  This node is used by V230.
WARNING: Less than two connections to node N037.  This node is used by V231.
WARNING: Less than two connections to node N038.  This node is used by V232.
WARNING: Less than two connections to node N039.  This node is used by V233.
WARNING: Less than two connections to node N040.  This node is used by V234.
WARNING: Less than two connections to node N041.  This node is used by V235.
WARNING: Less than two connections to node N042.  This node is used by V236.
WARNING: Less than two connections to node N043.  This node is used by V237.
WARNING: Less than two connections to node N044.  This node is used by V238.
WARNING: Less than two connections to node N045.  This node is used by V239.
WARNING: Less than two connections to node N046.  This node is used by V240.
WARNING: Less than two connections to node N047.  This node is used by V241.
WARNING: Less than two connections to node N048.  This node is used by V242.
WARNING: Less than two connections to node N049.  This node is used by V243.
WARNING: Less than two connections to node N050.  This node is used by V244.
WARNING: Less than two connections to node N051.  This node is used by V245.
WARNING: Less than two connections to node N052.  This node is used by V246.
WARNING: Less than two connections to node N053.  This node is used by V247.
WARNING: Less than two connections to node N054.  This node is used by V248.
WARNING: Less than two connections to node N055.  This node is used by V249.
WARNING: Less than two connections to node N056.  This node is used by V250.
WARNING: Less than two connections to node N057.  This node is used by V251.
WARNING: Less than two connections to node N058.  This node is used by V252.
WARNING: Less than two connections to node N059.  This node is used by V253.
WARNING: Less than two connections to node N060.  This node is used by V254.
WARNING: Less than two connections to node N061.  This node is used by V255.
WARNING: Less than two connections to node N062.  This node is used by V256.
WARNING: Less than two connections to node N063.  This node is used by V257.
WARNING: Less than two connections to node N064.  This node is used by V258.
WARNING: Less than two connections to node N449.  This node is used by V259.
WARNING: Less than two connections to node N450.  This node is used by V260.
WARNING: Less than two connections to node N451.  This node is used by V261.
WARNING: Less than two connections to node N452.  This node is used by V262.
WARNING: Less than two connections to node N453.  This node is used by V263.
WARNING: Less than two connections to node N454.  This node is used by V264.
WARNING: Less than two connections to node N455.  This node is used by V265.
WARNING: Less than two connections to node N456.  This node is used by V266.
WARNING: Less than two connections to node N457.  This node is used by V267.
WARNING: Less than two connections to node N458.  This node is used by V268.
WARNING: Less than two connections to node N459.  This node is used by V269.
WARNING: Less than two connections to node N460.  This node is used by V270.
WARNING: Less than two connections to node N461.  This node is used by V271.
WARNING: Less than two connections to node N462.  This node is used by V272.
WARNING: Less than two connections to node N463.  This node is used by V273.
WARNING: Less than two connections to node N464.  This node is used by V274.
WARNING: Less than two connections to node N465.  This node is used by V275.
WARNING: Less than two connections to node N466.  This node is used by V276.
WARNING: Less than two connections to node N467.  This node is used by V277.
WARNING: Less than two connections to node N468.  This node is used by V278.
WARNING: Less than two connections to node N469.  This node is used by V279.
WARNING: Less than two connections to node N470.  This node is used by V280.
WARNING: Less than two connections to node N471.  This node is used by V281.
WARNING: Less than two connections to node N472.  This node is used by V282.
WARNING: Less than two connections to node N473.  This node is used by V283.
WARNING: Less than two connections to node N474.  This node is used by V284.
WARNING: Less than two connections to node N475.  This node is used by V285.
WARNING: Less than two connections to node N476.  This node is used by V286.
WARNING: Less than two connections to node N477.  This node is used by V287.
WARNING: Less than two connections to node N478.  This node is used by V288.
WARNING: Less than two connections to node N479.  This node is used by V289.
WARNING: Less than two connections to node N480.  This node is used by V290.
WARNING: Less than two connections to node N385.  This node is used by V291.
WARNING: Less than two connections to node N386.  This node is used by V292.
WARNING: Less than two connections to node N387.  This node is used by V293.
WARNING: Less than two connections to node N388.  This node is used by V294.
WARNING: Less than two connections to node N389.  This node is used by V295.
WARNING: Less than two connections to node N390.  This node is used by V296.
WARNING: Less than two connections to node N391.  This node is used by V297.
WARNING: Less than two connections to node N392.  This node is used by V298.
WARNING: Less than two connections to node N393.  This node is used by V299.
WARNING: Less than two connections to node N394.  This node is used by V300.
WARNING: Less than two connections to node N395.  This node is used by V301.
WARNING: Less than two connections to node N396.  This node is used by V302.
WARNING: Less than two connections to node N397.  This node is used by V303.
WARNING: Less than two connections to node N398.  This node is used by V304.
WARNING: Less than two connections to node N399.  This node is used by V305.
WARNING: Less than two connections to node N400.  This node is used by V306.
WARNING: Less than two connections to node N401.  This node is used by V307.
WARNING: Less than two connections to node N402.  This node is used by V308.
WARNING: Less than two connections to node N403.  This node is used by V309.
WARNING: Less than two connections to node N404.  This node is used by V310.
WARNING: Less than two connections to node N405.  This node is used by V311.
WARNING: Less than two connections to node N406.  This node is used by V312.
WARNING: Less than two connections to node N407.  This node is used by V313.
WARNING: Less than two connections to node N408.  This node is used by V314.
WARNING: Less than two connections to node N409.  This node is used by V315.
WARNING: Less than two connections to node N410.  This node is used by V316.
WARNING: Less than two connections to node N411.  This node is used by V317.
WARNING: Less than two connections to node N412.  This node is used by V318.
WARNING: Less than two connections to node N413.  This node is used by V319.
WARNING: Less than two connections to node N414.  This node is used by V320.
WARNING: Less than two connections to node N415.  This node is used by V321.
WARNING: Less than two connections to node N416.  This node is used by V322.
WARNING: Less than two connections to node N321.  This node is used by V323.
WARNING: Less than two connections to node N322.  This node is used by V324.
WARNING: Less than two connections to node N323.  This node is used by V325.
WARNING: Less than two connections to node N324.  This node is used by V326.
WARNING: Less than two connections to node N325.  This node is used by V327.
WARNING: Less than two connections to node N326.  This node is used by V328.
WARNING: Less than two connections to node N327.  This node is used by V329.
WARNING: Less than two connections to node N328.  This node is used by V330.
WARNING: Less than two connections to node N329.  This node is used by V331.
WARNING: Less than two connections to node N330.  This node is used by V332.
WARNING: Less than two connections to node N331.  This node is used by V333.
WARNING: Less than two connections to node N332.  This node is used by V334.
WARNING: Less than two connections to node N333.  This node is used by V335.
WARNING: Less than two connections to node N334.  This node is used by V336.
WARNING: Less than two connections to node N335.  This node is used by V337.
WARNING: Less than two connections to node N336.  This node is used by V338.
WARNING: Less than two connections to node N337.  This node is used by V339.
WARNING: Less than two connections to node N338.  This node is used by V340.
WARNING: Less than two connections to node N339.  This node is used by V341.
WARNING: Less than two connections to node N340.  This node is used by V342.
WARNING: Less than two connections to node N341.  This node is used by V343.
WARNING: Less than two connections to node N342.  This node is used by V344.
WARNING: Less than two connections to node N343.  This node is used by V345.
WARNING: Less than two connections to node N344.  This node is used by V346.
WARNING: Less than two connections to node N345.  This node is used by V347.
WARNING: Less than two connections to node N346.  This node is used by V348.
WARNING: Less than two connections to node N347.  This node is used by V349.
WARNING: Less than two connections to node N348.  This node is used by V350.
WARNING: Less than two connections to node N349.  This node is used by V351.
WARNING: Less than two connections to node N350.  This node is used by V352.
WARNING: Less than two connections to node N351.  This node is used by V353.
WARNING: Less than two connections to node N352.  This node is used by V354.
WARNING: Less than two connections to node N257.  This node is used by V355.
WARNING: Less than two connections to node N258.  This node is used by V356.
WARNING: Less than two connections to node N259.  This node is used by V357.
WARNING: Less than two connections to node N260.  This node is used by V358.
WARNING: Less than two connections to node N261.  This node is used by V359.
WARNING: Less than two connections to node N262.  This node is used by V360.
WARNING: Less than two connections to node N263.  This node is used by V361.
WARNING: Less than two connections to node N264.  This node is used by V362.
WARNING: Less than two connections to node N265.  This node is used by V363.
WARNING: Less than two connections to node N266.  This node is used by V364.
WARNING: Less than two connections to node N267.  This node is used by V365.
WARNING: Less than two connections to node N268.  This node is used by V366.
WARNING: Less than two connections to node N269.  This node is used by V367.
WARNING: Less than two connections to node N270.  This node is used by V368.
WARNING: Less than two connections to node N271.  This node is used by V369.
WARNING: Less than two connections to node N272.  This node is used by V370.
WARNING: Less than two connections to node N273.  This node is used by V371.
WARNING: Less than two connections to node N274.  This node is used by V372.
WARNING: Less than two connections to node N275.  This node is used by V373.
WARNING: Less than two connections to node N276.  This node is used by V374.
WARNING: Less than two connections to node N277.  This node is used by V375.
WARNING: Less than two connections to node N278.  This node is used by V376.
WARNING: Less than two connections to node N279.  This node is used by V377.
WARNING: Less than two connections to node N280.  This node is used by V378.
WARNING: Less than two connections to node N281.  This node is used by V379.
WARNING: Less than two connections to node N282.  This node is used by V380.
WARNING: Less than two connections to node N283.  This node is used by V381.
WARNING: Less than two connections to node N284.  This node is used by V382.
WARNING: Less than two connections to node N285.  This node is used by V383.
WARNING: Less than two connections to node N286.  This node is used by V384.
WARNING: Less than two connections to node N287.  This node is used by V385.
WARNING: Less than two connections to node N288.  This node is used by V386.
WARNING: Less than two connections to node N193.  This node is used by V387.
WARNING: Less than two connections to node N194.  This node is used by V388.
WARNING: Less than two connections to node N195.  This node is used by V389.
WARNING: Less than two connections to node N196.  This node is used by V390.
WARNING: Less than two connections to node N197.  This node is used by V391.
WARNING: Less than two connections to node N198.  This node is used by V392.
WARNING: Less than two connections to node N199.  This node is used by V393.
WARNING: Less than two connections to node N200.  This node is used by V394.
WARNING: Less than two connections to node N201.  This node is used by V395.
WARNING: Less than two connections to node N202.  This node is used by V396.
WARNING: Less than two connections to node N203.  This node is used by V397.
WARNING: Less than two connections to node N204.  This node is used by V398.
WARNING: Less than two connections to node N205.  This node is used by V399.
WARNING: Less than two connections to node N206.  This node is used by V400.
WARNING: Less than two connections to node N207.  This node is used by V401.
WARNING: Less than two connections to node N208.  This node is used by V402.
WARNING: Less than two connections to node N209.  This node is used by V403.
WARNING: Less than two connections to node N210.  This node is used by V404.
WARNING: Less than two connections to node N211.  This node is used by V405.
WARNING: Less than two connections to node N212.  This node is used by V406.
WARNING: Less than two connections to node N213.  This node is used by V407.
WARNING: Less than two connections to node N214.  This node is used by V408.
WARNING: Less than two connections to node N215.  This node is used by V409.
WARNING: Less than two connections to node N216.  This node is used by V410.
WARNING: Less than two connections to node N217.  This node is used by V411.
WARNING: Less than two connections to node N218.  This node is used by V412.
WARNING: Less than two connections to node N219.  This node is used by V413.
WARNING: Less than two connections to node N220.  This node is used by V414.
WARNING: Less than two connections to node N221.  This node is used by V415.
WARNING: Less than two connections to node N222.  This node is used by V416.
WARNING: Less than two connections to node N223.  This node is used by V417.
WARNING: Less than two connections to node N224.  This node is used by V418.
WARNING: Less than two connections to node N129.  This node is used by V419.
WARNING: Less than two connections to node N130.  This node is used by V420.
WARNING: Less than two connections to node N131.  This node is used by V421.
WARNING: Less than two connections to node N132.  This node is used by V422.
WARNING: Less than two connections to node N133.  This node is used by V423.
WARNING: Less than two connections to node N134.  This node is used by V424.
WARNING: Less than two connections to node N135.  This node is used by V425.
WARNING: Less than two connections to node N136.  This node is used by V426.
WARNING: Less than two connections to node N137.  This node is used by V427.
WARNING: Less than two connections to node N138.  This node is used by V428.
WARNING: Less than two connections to node N139.  This node is used by V429.
WARNING: Less than two connections to node N140.  This node is used by V430.
WARNING: Less than two connections to node N141.  This node is used by V431.
WARNING: Less than two connections to node N142.  This node is used by V432.
WARNING: Less than two connections to node N143.  This node is used by V433.
WARNING: Less than two connections to node N144.  This node is used by V434.
WARNING: Less than two connections to node N145.  This node is used by V435.
WARNING: Less than two connections to node N146.  This node is used by V436.
WARNING: Less than two connections to node N147.  This node is used by V437.
WARNING: Less than two connections to node N148.  This node is used by V438.
WARNING: Less than two connections to node N149.  This node is used by V439.
WARNING: Less than two connections to node N150.  This node is used by V440.
WARNING: Less than two connections to node N151.  This node is used by V441.
WARNING: Less than two connections to node N152.  This node is used by V442.
WARNING: Less than two connections to node N153.  This node is used by V443.
WARNING: Less than two connections to node N154.  This node is used by V444.
WARNING: Less than two connections to node N155.  This node is used by V445.
WARNING: Less than two connections to node N156.  This node is used by V446.
WARNING: Less than two connections to node N157.  This node is used by V447.
WARNING: Less than two connections to node N158.  This node is used by V448.
WARNING: Less than two connections to node N159.  This node is used by V449.
WARNING: Less than two connections to node N160.  This node is used by V450.
WARNING: Less than two connections to node N065.  This node is used by V451.
WARNING: Less than two connections to node N066.  This node is used by V452.
WARNING: Less than two connections to node N067.  This node is used by V453.
WARNING: Less than two connections to node N068.  This node is used by V454.
WARNING: Less than two connections to node N069.  This node is used by V455.
WARNING: Less than two connections to node N070.  This node is used by V456.
WARNING: Less than two connections to node N071.  This node is used by V457.
WARNING: Less than two connections to node N072.  This node is used by V458.
WARNING: Less than two connections to node N073.  This node is used by V459.
WARNING: Less than two connections to node N074.  This node is used by V460.
WARNING: Less than two connections to node N075.  This node is used by V461.
WARNING: Less than two connections to node N076.  This node is used by V462.
WARNING: Less than two connections to node N077.  This node is used by V463.
WARNING: Less than two connections to node N078.  This node is used by V464.
WARNING: Less than two connections to node N079.  This node is used by V465.
WARNING: Less than two connections to node N080.  This node is used by V466.
WARNING: Less than two connections to node N081.  This node is used by V467.
WARNING: Less than two connections to node N082.  This node is used by V468.
WARNING: Less than two connections to node N083.  This node is used by V469.
WARNING: Less than two connections to node N084.  This node is used by V470.
WARNING: Less than two connections to node N085.  This node is used by V471.
WARNING: Less than two connections to node N086.  This node is used by V472.
WARNING: Less than two connections to node N087.  This node is used by V473.
WARNING: Less than two connections to node N088.  This node is used by V474.
WARNING: Less than two connections to node N089.  This node is used by V475.
WARNING: Less than two connections to node N090.  This node is used by V476.
WARNING: Less than two connections to node N091.  This node is used by V477.
WARNING: Less than two connections to node N092.  This node is used by V478.
WARNING: Less than two connections to node N093.  This node is used by V479.
WARNING: Less than two connections to node N094.  This node is used by V480.
WARNING: Less than two connections to node N095.  This node is used by V481.
WARNING: Less than two connections to node N096.  This node is used by V482.
WARNING: Less than two connections to node N001.  This node is used by V483.
WARNING: Less than two connections to node N002.  This node is used by V484.
WARNING: Less than two connections to node N003.  This node is used by V485.
WARNING: Less than two connections to node N004.  This node is used by V486.
WARNING: Less than two connections to node N005.  This node is used by V487.
WARNING: Less than two connections to node N006.  This node is used by V488.
WARNING: Less than two connections to node N007.  This node is used by V489.
WARNING: Less than two connections to node N008.  This node is used by V490.
WARNING: Less than two connections to node N009.  This node is used by V491.
WARNING: Less than two connections to node N010.  This node is used by V492.
WARNING: Less than two connections to node N011.  This node is used by V493.
WARNING: Less than two connections to node N012.  This node is used by V494.
WARNING: Less than two connections to node N013.  This node is used by V495.
WARNING: Less than two connections to node N014.  This node is used by V496.
WARNING: Less than two connections to node N015.  This node is used by V497.
WARNING: Less than two connections to node N016.  This node is used by V498.
WARNING: Less than two connections to node N017.  This node is used by V499.
WARNING: Less than two connections to node N018.  This node is used by V500.
WARNING: Less than two connections to node N019.  This node is used by V501.
WARNING: Less than two connections to node N020.  This node is used by V502.
WARNING: Less than two connections to node N021.  This node is used by V503.
WARNING: Less than two connections to node N022.  This node is used by V504.
WARNING: Less than two connections to node N023.  This node is used by V505.
WARNING: Less than two connections to node N024.  This node is used by V506.
WARNING: Less than two connections to node N025.  This node is used by V507.
WARNING: Less than two connections to node N026.  This node is used by V508.
WARNING: Less than two connections to node N027.  This node is used by V509.
WARNING: Less than two connections to node N028.  This node is used by V510.
WARNING: Less than two connections to node N029.  This node is used by V511.
WARNING: Less than two connections to node N030.  This node is used by V512.
WARNING: Less than two connections to node N031.  This node is used by V513.
WARNING: Less than two connections to node N032.  This node is used by V514.
.OP point found by inspection.

Date: Mon Feb 09 11:57:19 2015
Total elapsed time: 7.405 seconds.

tnom = 27
temp = 27
method = modified trap
totiter = 85522
traniter = 85522
tranpoints = 42762
accept = 30517
rejected = 12245
matrix size = 1032
fillins = 0
solver = Normal
Matrix Compiler1: 14.1 KB object code size  8.5/4.4/[2.9]
Matrix Compiler2: 39.3 KB object code size  6.2/10.9/[6.5]


