Circuit: * C:\Program Files (x86)\LTC_ALL\LTspiceIV_4.18_multiLibs\examples\jigs\4358.asc

Direct Newton iteration failed to find .op point.  (Use ".option noopiter" to skip.)
Starting Gmin stepping
Increasing initial diagonal Gmin to 100
Increasing initial diagonal Gmin to 1000
Increasing initial diagonal Gmin to 10000
Increasing initial diagonal Gmin to 100000
Increasing initial diagonal Gmin to 1e+006
Initial Gmin=1e+006 failed
Gmin stepping failed

Starting source stepping with srcstepmethod=0
Source Step = 3.0303%
Source Step = 33.3333%
Source Step = 35.3693%
Source Step = 35.8428%
Source Step = 36.3163%
Source Step = 36.7898%
Source Step = 37.2633%
vernier = 0.0234375
Source Step = 37.7841%
Source Step = 38.4943%
Source Step = 39.2045%
Source Step = 39.9148%
Source Step = 40.625%
vernier = 0.0351563
Source Step = 41.3707%
Source Step = 42.4361%
Source Step = 43.5014%
Source Step = 44.5668%
Source Step = 45.6321%
Source Step = 46.6974%
vernier = 0.0527344
Source Step = 48.2955%
Source Step = 49.8935%
Source Step = 51.4915%
Source Step = 53.0895%
Source Step = 54.6875%
vernier = 0.0791016
Source Step = 57.0046%
Source Step = 59.4016%
Source Step = 61.7987%
Source Step = 64.1957%
Source Step = 66.5927%
vernier = 0.118652
Source Step = 69.9485%
Source Step = 73.544%
Source Step = 77.1396%
Source Step = 80.7351%
Source Step = 84.3306%
vernier = 0.177979
Source Step = 89.1846%
Source Step = 94.5779%
Source Step = 99.9711%
Source Step = 99.9487%
Source Step = 100%
Source Step = 100%
Source stepping succeeded in finding the operating point.


Date: Sun Dec 07 00:12:57 2014
Total elapsed time: 0.579 seconds.

tnom = 27
temp = 27
method = modified trap
totiter = 8348
traniter = 4970
tranpoints = 1595
accept = 1442
rejected = 153
matrix size = 37
fillins = 19
solver = Normal
Thread vector: 18.6/15.6[2] 5.9/5.5[1] 2.3/2.8[1] 0.5/1.4[1]  2592/500
Matrix Compiler1: 2.70 KB object code size  1.4/0.9/[0.5]
Matrix Compiler2: 3.54 KB object code size  1.2/1.2/[0.8]


