Circuit: * C:\Program Files (x86)\LTC_ALL\LTspiceIV_4.18_multiLibs\examples\LTspiceWorldTour2009\Analis&Aids\Hirarch\top.asc

Direct Newton iteration for .op point succeeded.

Date: Mon Feb 09 11:54:41 2015
Total elapsed time: 0.140 seconds.

tnom = 27
temp = 27
method = modified trap
totiter = 2089
traniter = 2082
tranpoints = 1042
accept = 1042
rejected = 0
matrix size = 8
fillins = 0
solver = Normal
Matrix Compiler1: 344 bytes object code size  0.3/0.2/[0.2]
Matrix Compiler2: 594 bytes object code size  0.2/0.2/[0.2]


