Circuit: * C:\Program Files (x86)\LTC_ALL\LTspiceIV_4.18_multiLibs\examples\LTspiceWorldTour2009\Analis&Aids\TraceCharact\BVcbo.asc

.step i1=2e-005
.step i1=4e-005
.step i1=6e-005
.step i1=8e-005
.step i1=0.0001

Date: Mon Feb 09 11:52:38 2015
Total elapsed time: 0.396 seconds.

tnom = 27
temp = 27
method = trap
totiter = 20051
traniter = 0
tranpoints = 0
accept = 0
rejected = 0
matrix size = 3
fillins = 0
solver = Normal
Matrix Compiler1: 86 bytes object code size  0.1/0.1/[0.1]
Matrix Compiler2: 163 bytes object code size  0.1/0.2/[0.1]


