Circuit: * Z:\home\mainster\CODES_local\LTSpice_projects\EAS_Labor1\BS170_BF245_Kennwerte_EIT.asc

Instance "m:m1:2": Length shorter than recommended for a level 1 MOSFET.
Instance "m:m2:2": Length shorter than recommended for a level 1 MOSFET.

Date: Thu Dec 18 16:52:46 2014
Total elapsed time: 0.074 seconds.

tnom = 27
temp = 27
method = trap
totiter = 1246
traniter = 0
tranpoints = 0
accept = 0
rejected = 0
matrix size = 34
fillins = 4
solver = Normal
Matrix Compiler1: 2.25 KB object code size  2.2/1.0/[0.8]
Matrix Compiler2: 2.69 KB object code size  0.9/1.3/[0.7]


