Circuit: * Z:\home\mainster\CODES_local\LTSpice_projects\EAS_Labor1\BS170_gm_plot.asc

Instance "m:m2:2": Length shorter than recommended for a level 1 MOSFET.
Instance "m:m1:2": Length shorter than recommended for a level 1 MOSFET.
Direct Newton iteration for .op point succeeded.

Date: Thu Dec 18 13:16:59 2014
Total elapsed time: 0.104 seconds.

tnom = 27
temp = 27
method = modified trap
totiter = 3927
traniter = 3909
tranpoints = 1639
accept = 1326
rejected = 313
matrix size = 36
fillins = 4
solver = Normal
Matrix Compiler1: 2.36 KB object code size  1.3/0.6/[0.4]
Matrix Compiler2: off  [0.6]/0.7/0.8


