Stray ".ends" card: .ends
Stray ".ends" card: .ends
Stray ".ends" card: .ends
Circuit: * Z:\home\mainster\CODES_local\LTSpice_projects\EAS_Labor1\Sourcefolger.asc

Instance "m:m2:2": Length shorter than recommended for a level 1 MOSFET.
Instance "m:m1:2": Length shorter than recommended for a level 1 MOSFET.
Direct Newton iteration for .op point succeeded.

Date: Thu Dec 18 18:25:23 2014
Total elapsed time: 0.076 seconds.

tnom = 27
temp = 27
method = trap
totiter = 18
traniter = 0
tranpoints = 0
accept = 0
rejected = 0
matrix size = 57
fillins = 2
solver = Normal
Matrix Compiler1:     195 opcodes
Matrix Compiler2: 4.34 KB object code size

