Circuit: * C:\Program Files (x86)\LTC_ALL\LTspiceIV_4.18_multiLibs\examples\LtSpicePlus\ElectroMedic\Heart EE model rev0.asc

.OP point found by inspection.

Date: Mon Feb 09 11:38:15 2015
Total elapsed time: 0.516 seconds.

tnom = 27
temp = 27
method = modified trap
totiter = 40034
traniter = 40034
tranpoints = 20018
accept = 20018
rejected = 0
matrix size = 16
fillins = 14
solver = Normal
Matrix Compiler1: 1.25 KB object code size  0.6/0.4/[0.3]
Matrix Compiler2: 1.34 KB object code size  0.4/0.4/[0.2]


