Circuit: * Z:\home\mainster\CODES_local\LTSpice_projects\diskret_op_eas_labor\2.7.4.asc

Warning: Multiple definitions of model "ca3046" Type: BJT
Warning: Multiple definitions of model "bc817-25" Type: BJT
WARNING: Less than two connections to node FIN.  This node is used by V3.
WARNING: Less than two connections to node FIN_105.  This node is used by V5.
WARNING: Less than two connections to node FIN_115.  This node is used by V6.
Direct Newton iteration failed to find .op point.  (Use ".option noopiter" to skip.)
Starting Gmin stepping
Gmin = 10
Gmin = 1.07374
Gmin = 0.115292
Gmin = 0.0123794
Gmin = 0.00132923
Gmin = 0.000142725
Gmin = 1.5325e-005
Gmin = 1.6455e-006
vernier = 0.5
vernier = 0.25
vernier = 0.125
vernier = 0.0625
Gmin = 7.9294e-007
vernier = 0.03125
vernier = 0.015625
vernier = 0.0078125
Gmin = 7.74624e-007
vernier = 0.0104167
vernier = 0.0138889
Gmin = 7.5327e-007
vernier = 0.0185185
vernier = 0.0246913
Gmin = 7.20653e-007
vernier = 0.0329218
Gmin = 6.70755e-007
vernier = 0.0438957
vernier = 0.0585276
Gmin = 5.96539e-007
vernier = 0.0780367
vernier = 0.104049
Gmin = 4.95694e-007
vernier = 0.138732
Gmin = 3.67633e-007
vernier = 0.184976
vernier = 0.246634
Gmin = 2.26389e-007
vernier = 0.328846
vernier = 0.438461
Gmin = 1.06134e-007
vernier = 0.584614
vernier = 0.292307
vernier = 0.146154
vernier = 0.0730768
vernier = 0.0365384
Gmin = 6.30948e-008
vernier = 0.0182692
vernier = 0.0091346
vernier = 0.0045673
vernier = 0.00228365
vernier = 0.00114182
vernier = 0.000570912
vernier = 0.000428184
Gmin = 0
Gmin stepping failed

Starting source stepping with srcstepmethod=0
Source Step = 3.0303%
Source Step = 33.3333%
Source Step = 63.6364%
Source Step = 93.9394%
Source stepping succeeded in finding the operating point.

.step ampl=0.1
.step ampl=2.1
.step ampl=4.1
.step ampl=6.1
.step ampl=8

Date: Fri Sep 18 08:05:35 2015
Total elapsed time: 3.665 seconds.

tnom = 27
temp = 27
method = modified trap
totiter = 18181
traniter = 15049
tranpoints = 5862
accept = 4233
rejected = 1629
matrix size = 48
fillins = 56
solver = Normal
Matrix Compiler1: 5.82 KB object code size  2.6/1.3/[0.6]
Matrix Compiler2: 5.13 KB object code size  1.3/1.3/[0.9]


