Circuit: * Z:\home\mainster\CODES_local\LTSpice_projects\diskret_op_eas_labor\Diff_FET+spiegel_GMDV_SR.asc

Iso3: both pins shorted together -- ignoring.
WARNING: Less than two connections to node SR_US_MESS.  This node is used by B1.
WARNING: Less than two connections to node SR_US_CALC.  This node is used by B2.
WARNING: Less than two connections to node N001.  This node is used by V2.
Instance "m5": Length shorter than recommended for a level 1 MOSFET.
Instance "m4": Length shorter than recommended for a level 1 MOSFET.
Instance "m1": Length shorter than recommended for a level 1 MOSFET.
Instance "m3": Length shorter than recommended for a level 1 MOSFET.
Instance "m2": Length shorter than recommended for a level 1 MOSFET.
Direct Newton iteration failed to find .op point.  (Use ".option noopiter" to skip.)
Starting Gmin stepping
Gmin = 10
Gmin = 1.07374
Gmin = 0.115292
Gmin = 0.0123794
Gmin = 0.00132923
Gmin = 0.000142725
Gmin = 1.5325e-005
Gmin = 1.6455e-006
Gmin = 1.76685e-007
Gmin = 1.89714e-008
Gmin = 2.03704e-009
Gmin = 2.18725e-010
Gmin = 2.34854e-011
Gmin = 2.52173e-012
Gmin = 2.70769e-013
Gmin = 0
Gmin stepping succeeded in finding the operating point.

.step nn=1
.step nn=3
.step nn=5
.step nn=7
.step nn=9
.step nn=10

Date: Sun Feb 15 23:09:39 2015
Total elapsed time: 0.335 seconds.

tnom = 27
temp = 27
method = trap
totiter = 407
traniter = 0
tranpoints = 0
accept = 0
rejected = 0
matrix size = 31
fillins = 16
solver = Normal
Matrix Compiler1:     145 opcodes
Matrix Compiler2: off  [0.6]/0.8/1.3


