Circuit: * Z:\home\mainster\CODES_local\LTSpice_projects\galvoscanner\PMIC\LT1617-1.asc

Direct Newton iteration for .op point succeeded.

Date: Tue Jun 02 21:15:54 2015
Total elapsed time: 73.572 seconds.

tnom = 27
temp = 27
method = modified trap
totiter = 12018643
traniter = 12018627
tranpoints = 3496742
accept = 2618083
rejected = 878659
matrix size = 12
fillins = 0
solver = Normal
Matrix Compiler1:      22 opcodes  0.3/[0.3]/0.3
Matrix Compiler2: off  [0.2]/0.4/0.3


