Circuit: * Z:\home\mainster\CODES_local\LTSpice_projects\galvoscanner\PMIC\LT3463A_+-19Vaus5V.asc

Direct Newton iteration for .op point succeeded.

Date: Tue Jun 02 22:03:21 2015
Total elapsed time: 108.635 seconds.

tnom = 27
temp = 27
method = modified trap
totiter = 9191438
traniter = 9191423
tranpoints = 3078183
accept = 2271032
rejected = 807151
matrix size = 22
fillins = 5
solver = Normal
Matrix Compiler1: 948 bytes object code size  0.5/0.4/[0.3]
Matrix Compiler2: off  [0.3]/0.5/0.4


