Circuit: * Z:\home\mainster\CODES_local\LTSpice_projects\galvoscanner\PMIC\LT3507_triple_monolithic.asc

Warning: Multiple definitions of model "sub704" Type: BJT
Warning: Multiple definitions of model "sub605" Type: BJT
Warning: Multiple definitions of model "n3306d" Type: Diode
Warning: Multiple definitions of model "diode1" Type: Diode
Direct Newton iteration for .op point succeeded.
Ignoring empty pin current: Ix(u1:3)
Ignoring empty pin current: Ix(u1:29)
Ignoring empty pin current: Ix(u1:31)
Ignoring empty pin current: Ix(u1:34)
Ignoring empty pin current: Ix(u1:36)
Ignoring empty pin current: Ix(u1:38)
Ignoring empty pin current: Ix(u1:3)
Ignoring empty pin current: Ix(u1:29)
Ignoring empty pin current: Ix(u1:31)
Ignoring empty pin current: Ix(u1:34)
Ignoring empty pin current: Ix(u1:36)
Ignoring empty pin current: Ix(u1:38)

Date: Tue Jun 02 18:09:45 2015
Total elapsed time: 23.840 seconds.

tnom = 27
temp = 27
method = modified trap
totiter = 579795
traniter = 579781
tranpoints = 162349
accept = 124911
rejected = 37438
matrix size = 108
fillins = 26
solver = Normal
Thread vector: 22.8/16.3[5] 16.4/10.6[5] 3.0/2.3[3] 0.6/1.4[1]  2592/500
Matrix Compiler1: 5.58 KB object code size  3.9/2.5/[1.3]
Matrix Compiler2: 7.61 KB object code size  2.1/3.3/[0.9]


