Circuit: * Z:\home\mainster\CODES_local\LTSpice_projects\galvoscanner\PMIC\LT3667_DC1869A_TA01A.asc

WARNING: Less than two connections to node VR8.  This node is used by V2.
Direct Newton iteration failed to find .op point.  (Use ".option noopiter" to skip.)
Starting Gmin stepping
Gmin = 10
Gmin = 1.07374
Gmin = 0.115292
Gmin = 0.0123794
Gmin = 0.00132923
Gmin = 0.000142725
Gmin = 1.5325e-005
Gmin = 1.6455e-006
Gmin = 1.76685e-007
Gmin = 1.89714e-008
Gmin = 2.03704e-009
Gmin = 2.18725e-010
Gmin = 2.34854e-011
Gmin = 2.52173e-012
Gmin = 2.70769e-013
Gmin = 0
Gmin stepping succeeded in finding the operating point.

Ignoring empty pin current: Ix(u1:2)
Ignoring empty pin current: Ix(u1:21)
Ignoring empty pin current: Ix(u1:22)
Ignoring empty pin current: Ix(u1:2)
Ignoring empty pin current: Ix(u1:21)
Ignoring empty pin current: Ix(u1:22)

Date: Tue Jun 02 20:43:04 2015
Total elapsed time: 43.818 seconds.

tnom = 27
temp = 27
method = modified trap
totiter = 1148395
traniter = 1147965
tranpoints = 374599
accept = 280204
rejected = 94395
matrix size = 105
fillins = 47
solver = Normal
Thread vector: 22.0/15.0[4] 16.1/11.7[4] 3.6/3.5[1] 0.6/15.1[1]  2592/500
Matrix Compiler1: 6.82 KB object code size  4.2/3.2/[1.4]
Matrix Compiler2: 7.82 KB object code size  2.6/3.7/[1.0]


