Stray ".ends" card: .ends
Circuit: * C:\Program Files (x86)\LTC_ALL\LTspiceIV_4.18_multiLibs\examples\Robertugo\Challenge\Tria2Sin.asc

Early termination of direct N-R iteration.
Direct Newton iteration failed to find .op point.  (Use ".option noopiter" to skip.)
Starting Gmin stepping
Increasing initial diagonal Gmin to 100
Increasing initial diagonal Gmin to 1000
Gmin = 1000
vernier = 0.5
vernier = 0.25
vernier = 0.125
Gmin = 535.425
vernier = 0.0625
vernier = 0.03125
vernier = 0.015625
vernier = 0.0078125
Gmin = 533.339
vernier = 0.00390625
vernier = 0.00195313
vernier = 0.000976563
vernier = 0.000488281
Gmin = 533.469
Gmin = 0
Gmin stepping failed

Starting source stepping with srcstepmethod=0
Source Step = 3.0303%
Source Step = 33.3333%
Source Step = 63.6364%
Source Step = 93.9394%
Source stepping succeeded in finding the operating point.


Date: Mon Feb 09 12:08:54 2015
Total elapsed time: 0.408 seconds.

tnom = 27
temp = 27
method = modified trap
totiter = 7105
traniter = 5293
tranpoints = 2108
accept = 1782
rejected = 326
matrix size = 44
fillins = 148
solver = Normal
Matrix Compiler1: 14.1 KB object code size  3.8/2.5/[1.0]
Matrix Compiler2: 6.28 KB object code size  1.8/1.4/[0.7]


