Circuit: * C:\Program Files (x86)\LTC_ALL\LTspiceIV_4.18_multiLibs\examples\Basso\BassoBook20100103\Switch-Mode Power Supplies - Basso- Figure 1-4a.asc

Direct Newton iteration for .op point succeeded.

Date: Mon Feb 09 12:12:45 2015
Total elapsed time: 0.052 seconds.

tnom = 27
temp = 27
method = modified trap
totiter = 2126
traniter = 2102
tranpoints = 1050
accept = 1048
rejected = 2
matrix size = 5
fillins = 0
solver = Normal
Matrix Compiler1: 204 bytes object code size  0.5/0.4/[0.4]
Matrix Compiler2: 311 bytes object code size  0.4/0.5/[0.3]


