Circuit: * C:\Program Files (x86)\LTC_ALL\LTspiceIV_4.18_multiLibs\examples\LtSpicePlus\Digital\A_Devices\Vid_Sync\vid_sync1.asc

WARNING: Less than two connections to node _SY.  This node is used by A5.
WARNING: Less than two connections to node VSUM.  This node is used by B6.
WARNING: Less than two connections to node SYG.  This node is used by A3.
Direct Newton iteration for .op point succeeded.

Date: Mon Feb 09 11:34:25 2015
Total elapsed time: 2.776 seconds.

tnom = 27
temp = 27
method = modified trap
totiter = 413369
traniter = 413364
tranpoints = 204088
accept = 203153
rejected = 935
matrix size = 19
fillins = 0
solver = Normal
Matrix Compiler1: 400 bytes object code size  0.5/0.4/[0.3]
Matrix Compiler2: 857 bytes object code size  0.4/0.6/[0.4]


